@<TRIPOS>MOLECULE
4735
   51    52     1     0     0
SMALL
bcc


@<TRIPOS>ATOM
      1 O1           5.7780     0.9910    10.3360 os         1 UNL      -0.306900
      2 O2           5.1480    -2.5770     7.7050 os         1 UNL      -0.306900
      3 N3          10.9260     4.8780    10.4420 nh         1 UNL      -0.471850
      4 N4           5.5960    -6.5460     2.6400 nh         1 UNL      -0.471850
      5 N5           9.8190     5.5700     8.5040 nh         1 UNL      -0.455950
      6 N6           6.9980    -7.5740     4.2010 nh         1 UNL      -0.455950
      7 C7           6.4520    -1.8740    11.1160 c3         1 UNL      -0.079400
      8 C8           5.2720    -1.0130    11.5780 c3         1 UNL      -0.100900
      9 C9           6.4960    -1.9830     9.5930 c3         1 UNL      -0.100900
     10 C10          5.6310     0.4660    11.6470 c3         1 UNL       0.122400
     11 C11          5.4050    -2.9030     9.0640 c3         1 UNL       0.122400
     12 C12          6.7750     1.9120    10.1460 ca         1 UNL       0.207100
     13 C13          5.4030    -3.5530     6.7760 ca         1 UNL       0.207100
     14 C14          7.9970     1.5150     9.6030 ca         1 UNL      -0.183500
     15 C15          6.0460    -4.7300     7.1600 ca         1 UNL      -0.183500
     16 C16          6.5670     3.2470    10.4930 ca         1 UNL      -0.183500
     17 C17          5.0170    -3.3690     5.4480 ca         1 UNL      -0.183500
     18 C18          8.8040     3.7870     9.7550 ca         1 UNL      -0.309400
     19 C19          5.9180    -5.5400     4.8870 ca         1 UNL      -0.309400
     20 C20          9.0120     2.4520     9.4080 ca         1 UNL      -0.038250
     21 C21          6.3030    -5.7230     6.2150 ca         1 UNL      -0.038250
     22 C22          7.5820     4.1850    10.2970 ca         1 UNL      -0.038250
     23 C23          5.2750    -4.3630     4.5040 ca         1 UNL      -0.038250
     24 C24          9.8610     4.7650     9.5510 ce         1 UNL       0.528900
     25 C25          6.1850    -6.5760     3.9020 ce         1 UNL       0.528900
     26 H1          11.0800     5.7260    10.9190 hn         1 UNL       0.326450
     27 H2          11.5230     4.1120    10.5960 hn         1 UNL       0.326450
     28 H3           4.6680    -6.8540     2.5220 hn         1 UNL       0.326450
     29 H4           6.1070    -6.2160     1.8660 hn         1 UNL       0.326450
     30 H5          10.5340     6.2320     8.3640 hn         1 UNL       0.326450
     31 H6           9.0740     5.5070     7.8640 hn         1 UNL       0.326450
     32 H7           7.1810    -8.2760     3.5360 hn         1 UNL       0.326450
     33 H8           7.4220    -7.6150     5.0890 hn         1 UNL       0.326450
     34 H9           6.3530    -2.8540    11.5330 hc         1 UNL       0.054700
     35 H10          7.3580    -1.4110    11.4480 hc         1 UNL       0.054700
     36 H11          4.9670    -1.3400    12.5500 hc         1 UNL       0.065450
     37 H12          4.4830    -1.1270    10.8640 hc         1 UNL       0.065450
     38 H13          7.4490    -2.3710     9.3000 hc         1 UNL       0.065450
     39 H14          6.3370    -1.0070     9.1840 hc         1 UNL       0.065450
     40 H15          4.8530     0.9960    12.1560 h1         1 UNL       0.064450
     41 H16          6.5530     0.5800    12.1770 h1         1 UNL       0.064450
     42 H17          5.7270    -3.9210     9.1340 h1         1 UNL       0.064450
     43 H18          4.5130    -2.7780     9.6420 h1         1 UNL       0.064450
     44 H19          8.1510     0.5270     9.3470 ha         1 UNL       0.174000
     45 H20          6.3310    -4.8650     8.1420 ha         1 UNL       0.174000
     46 H21          5.6630     3.5410    10.8940 ha         1 UNL       0.174000
     47 H22          4.5420    -2.4990     5.1640 ha         1 UNL       0.174000
     48 H23          9.9160     2.1580     9.0070 ha         1 UNL       0.150750
     49 H24          6.7790    -6.5940     6.4990 ha         1 UNL       0.150750
     50 H25          7.4280     5.1720    10.5540 ha         1 UNL       0.150750
     51 H26          4.9900    -4.2270     3.5210 ha         1 UNL       0.150750
@<TRIPOS>BOND
     1     1    10 1   
     2     1    12 1   
     3     2    11 1   
     4     2    13 1   
     5     3    24 2   
     6     4    25 2   
     7     5    24 1   
     8     6    25 1   
     9     7     8 1   
    10     7     9 1   
    11     8    10 1   
    12     9    11 1   
    13    12    14 ar  
    14    12    16 ar  
    15    13    15 ar  
    16    13    17 ar  
    17    14    20 ar  
    18    15    21 ar  
    19    16    22 ar  
    20    17    23 ar  
    21    18    20 ar  
    22    18    22 ar  
    23    18    24 1   
    24    19    21 ar  
    25    19    23 ar  
    26    19    25 1   
    27     3    26 1   
    28     3    27 1   
    29     4    28 1   
    30     4    29 1   
    31     5    30 1   
    32     5    31 1   
    33     6    32 1   
    34     6    33 1   
    35     7    34 1   
    36     7    35 1   
    37     8    36 1   
    38     8    37 1   
    39     9    38 1   
    40     9    39 1   
    41    10    40 1   
    42    10    41 1   
    43    11    42 1   
    44    11    43 1   
    45    14    44 1   
    46    15    45 1   
    47    16    46 1   
    48    17    47 1   
    49    20    48 1   
    50    21    49 1   
    51    22    50 1   
    52    23    51 1   
@<TRIPOS>SUBSTRUCTURE
     1 UNL         1 TEMP              0 ****  ****    0 ROOT
