@<TRIPOS>MOLECULE
4735
   51    52     1     0     0
SMALL
bcc


@<TRIPOS>ATOM
      1 O1           6.3160    -2.8180     8.2460 os         1 UNL      -0.306400
      2 O2           4.7120    -7.4850    11.7550 os         1 UNL      -0.306400
      3 N3           5.4050    -6.4630     3.0020 nh         1 UNL      -0.471850
      4 N4          -1.2570    -8.4950    13.9810 nh         1 UNL      -0.471850
      5 N5           6.9270    -7.7370     4.2350 nh         1 UNL      -0.455950
      6 N6          -1.4880    -8.9780    11.7060 nh         1 UNL      -0.455950
      7 C7           5.5880    -4.0660    10.8770 c3         1 UNL      -0.079400
      8 C8           4.6480    -3.7720     9.7040 c3         1 UNL      -0.099400
      9 C9           5.9000    -5.5580    10.9760 c3         1 UNL      -0.099400
     10 C10          5.0870    -2.5500     8.9060 c3         1 UNL       0.122400
     11 C11          5.1820    -6.2050    12.1520 c3         1 UNL       0.122400
     12 C12          6.2880    -3.7510     7.2420 ca         1 UNL       0.207100
     13 C13          3.3880    -7.7570    11.9850 ca         1 UNL       0.207100
     14 C14          6.9330    -4.9760     7.4100 ca         1 UNL      -0.183250
     15 C15          2.8550    -8.9910    11.6120 ca         1 UNL      -0.183250
     16 C16          5.6140    -3.4750     6.0520 ca         1 UNL      -0.183250
     17 C17          2.5760    -6.8010    12.5950 ca         1 UNL      -0.183250
     18 C18          6.2290    -5.6500     5.2000 ca         1 UNL      -0.308900
     19 C19          0.6960    -8.3120    12.4570 ca         1 UNL      -0.308900
     20 C20          6.9040    -5.9260     6.3890 ca         1 UNL      -0.038250
     21 C21          1.5080    -9.2680    11.8480 ca         1 UNL      -0.038250
     22 C22          5.5840    -4.4250     5.0310 ca         1 UNL      -0.038250
     23 C23          1.2290    -7.0790    12.8310 ca         1 UNL      -0.038250
     24 C24          6.1970    -6.6410     4.1350 ce         1 UNL       0.528900
     25 C25         -0.7080    -8.6020    12.7040 ce         1 UNL       0.528900
     26 H1           5.8110    -6.5020     2.1060 hn         1 UNL       0.326450
     27 H2           4.4390    -6.2970     3.0980 hn         1 UNL       0.326450
     28 H3          -1.8120    -7.7170    14.2150 hn         1 UNL       0.326450
     29 H4          -1.0890    -9.1990    14.6490 hn         1 UNL       0.326450
     30 H5           6.9080    -8.4090     3.5150 hn         1 UNL       0.326450
     31 H6           7.4910    -7.8830     5.0280 hn         1 UNL       0.326450
     32 H7          -2.4380    -9.1740    11.8710 hn         1 UNL       0.326450
     33 H8          -1.1190    -9.0620    10.7980 hn         1 UNL       0.326450
     34 H9           5.1220    -3.7460    11.7850 hc         1 UNL       0.058700
     35 H10          6.5050    -3.5380    10.7160 hc         1 UNL       0.058700
     36 H11          3.6640    -3.5980    10.0860 hc         1 UNL       0.062700
     37 H12          4.6680    -4.6170     9.0480 hc         1 UNL       0.062700
     38 H13          6.9550    -5.6840    11.1020 hc         1 UNL       0.062700
     39 H14          5.5630    -6.0300    10.0780 hc         1 UNL       0.062700
     40 H15          4.3380    -2.3130     8.1800 h1         1 UNL       0.063950
     41 H16          5.2190    -1.7230     9.5730 h1         1 UNL       0.063950
     42 H17          5.8600    -6.3100    12.9740 h1         1 UNL       0.063950
     43 H18          4.3580    -5.5940    12.4550 h1         1 UNL       0.063950
     44 H19          7.4320    -5.1800     8.2900 ha         1 UNL       0.173750
     45 H20          3.4560    -9.6980    11.1610 ha         1 UNL       0.173750
     46 H21          5.1360    -2.5690     5.9280 ha         1 UNL       0.173750
     47 H22          2.9710    -5.8890    12.8710 ha         1 UNL       0.173750
     48 H23          7.3810    -6.8320     6.5140 ha         1 UNL       0.151250
     49 H24          1.1130   -10.1810    11.5720 ha         1 UNL       0.151250
     50 H25          5.0850    -4.2210     4.1510 ha         1 UNL       0.151250
     51 H26          0.6280    -6.3720    13.2820 ha         1 UNL       0.151250
@<TRIPOS>BOND
     1     1    10 1   
     2     1    12 1   
     3     2    11 1   
     4     2    13 1   
     5     3    24 2   
     6     4    25 2   
     7     5    24 1   
     8     6    25 1   
     9     7     8 1   
    10     7     9 1   
    11     8    10 1   
    12     9    11 1   
    13    12    14 ar  
    14    12    16 ar  
    15    13    15 ar  
    16    13    17 ar  
    17    14    20 ar  
    18    15    21 ar  
    19    16    22 ar  
    20    17    23 ar  
    21    18    20 ar  
    22    18    22 ar  
    23    18    24 1   
    24    19    21 ar  
    25    19    23 ar  
    26    19    25 1   
    27     3    26 1   
    28     3    27 1   
    29     4    28 1   
    30     4    29 1   
    31     5    30 1   
    32     5    31 1   
    33     6    32 1   
    34     6    33 1   
    35     7    34 1   
    36     7    35 1   
    37     8    36 1   
    38     8    37 1   
    39     9    38 1   
    40     9    39 1   
    41    10    40 1   
    42    10    41 1   
    43    11    42 1   
    44    11    43 1   
    45    14    44 1   
    46    15    45 1   
    47    16    46 1   
    48    17    47 1   
    49    20    48 1   
    50    21    49 1   
    51    22    50 1   
    52    23    51 1   
@<TRIPOS>SUBSTRUCTURE
     1 UNL         1 TEMP              0 ****  ****    0 ROOT
