@<TRIPOS>MOLECULE
4735
   51    52     1     0     0
SMALL
bcc


@<TRIPOS>ATOM
      1 O1           7.3980    -3.0910     8.3150 os         1 UNL      -0.308400
      2 O2          10.3390     0.5790    11.2270 os         1 UNL      -0.308400
      3 N3           4.0010    -5.7440     3.5160 nh         1 UNL      -0.472100
      4 N4          12.0910     6.1790     8.5470 nh         1 UNL      -0.472100
      5 N5           6.0940    -6.7490     3.2560 nh         1 UNL      -0.456200
      6 N6          10.0060     5.7880     7.5660 nh         1 UNL      -0.456200
      7 C7           7.4900    -0.5600    10.6990 c3         1 UNL      -0.079400
      8 C8           6.8110    -1.8780    10.3150 c3         1 UNL      -0.087900
      9 C9           8.4560    -0.7540    11.8670 c3         1 UNL      -0.087900
     10 C10          6.6200    -2.0100     8.8090 c3         1 UNL       0.125900
     11 C11          9.2590     0.5090    12.1470 c3         1 UNL       0.125900
     12 C12          6.8930    -3.7780     7.2410 ca         1 UNL       0.208100
     13 C13         10.4890     1.7540    10.5370 ca         1 UNL       0.208100
     14 C14          7.5000    -4.9610     6.8220 ca         1 UNL      -0.184000
     15 C15         11.7430     2.3590    10.4540 ca         1 UNL      -0.184000
     16 C16          5.7700    -3.2940     6.5700 ca         1 UNL      -0.184000
     17 C17          9.3880     2.3430     9.9160 ca         1 UNL      -0.184000
     18 C18          5.8620    -5.1780     5.0600 ca         1 UNL      -0.310400
     19 C19         10.7950     4.1430     9.1290 ca         1 UNL      -0.310400
     20 C20          6.9850    -5.6610     5.7310 ca         1 UNL      -0.038000
     21 C21         11.8960     3.5530     9.7500 ca         1 UNL      -0.038000
     22 C22          5.2540    -3.9940     5.4790 ca         1 UNL      -0.038000
     23 C23          9.5410     3.5380     9.2120 ca         1 UNL      -0.038000
     24 C24          5.3240    -5.9080     3.9230 ce         1 UNL       0.529400
     25 C25         10.9540     5.3880     8.3940 ce         1 UNL       0.529400
     26 H1           3.2720    -6.1570     4.0340 hn         1 UNL       0.326200
     27 H2           3.7950    -5.2150     2.7120 hn         1 UNL       0.326200
     28 H3          11.9990     7.1390     8.7430 hn         1 UNL       0.326200
     29 H4          12.9860     5.7780     8.4580 hn         1 UNL       0.326200
     30 H5           5.7320    -7.2440     2.4860 hn         1 UNL       0.326200
     31 H6           7.0310    -6.8810     3.5300 hn         1 UNL       0.326200
     32 H7          10.1120     6.6310     7.0670 hn         1 UNL       0.326200
     33 H8           9.1940     5.2450     7.4460 hn         1 UNL       0.326200
     34 H9           6.7400     0.1490    10.9810 hc         1 UNL       0.050200
     35 H10          8.0460    -0.2080     9.8560 hc         1 UNL       0.050200
     36 H11          5.8530    -1.9230    10.7890 hc         1 UNL       0.071450
     37 H12          7.4430    -2.6790    10.6370 hc         1 UNL       0.071450
     38 H13          9.1310    -1.5490    11.6300 hc         1 UNL       0.071450
     39 H14          7.8820    -0.9850    12.7400 hc         1 UNL       0.071450
     40 H15          5.5870    -2.1910     8.5970 h1         1 UNL       0.053950
     41 H16          6.9340    -1.1040     8.3340 h1         1 UNL       0.053950
     42 H17          8.6310     1.3670    12.0300 h1         1 UNL       0.053950
     43 H18          9.6350     0.4850    13.1480 h1         1 UNL       0.053950
     44 H19          8.3310    -5.3190     7.3190 ha         1 UNL       0.173750
     45 H20         12.5580     1.9220    10.9130 ha         1 UNL       0.173750
     46 H21          5.3200    -2.4190     6.8810 ha         1 UNL       0.173750
     47 H22          8.4600     1.8960     9.9780 ha         1 UNL       0.173750
     48 H23          7.4340    -6.5370     5.4210 ha         1 UNL       0.150750
     49 H24         12.8240     4.0010     9.6880 ha         1 UNL       0.150750
     50 H25          4.4240    -3.6360     4.9820 ha         1 UNL       0.150750
     51 H26          8.7260     3.9740     8.7530 ha         1 UNL       0.150750
@<TRIPOS>BOND
     1     1    10 1   
     2     1    12 1   
     3     2    11 1   
     4     2    13 1   
     5     3    24 2   
     6     4    25 2   
     7     5    24 1   
     8     6    25 1   
     9     7     8 1   
    10     7     9 1   
    11     8    10 1   
    12     9    11 1   
    13    12    14 ar  
    14    12    16 ar  
    15    13    15 ar  
    16    13    17 ar  
    17    14    20 ar  
    18    15    21 ar  
    19    16    22 ar  
    20    17    23 ar  
    21    18    20 ar  
    22    18    22 ar  
    23    18    24 1   
    24    19    21 ar  
    25    19    23 ar  
    26    19    25 1   
    27     3    26 1   
    28     3    27 1   
    29     4    28 1   
    30     4    29 1   
    31     5    30 1   
    32     5    31 1   
    33     6    32 1   
    34     6    33 1   
    35     7    34 1   
    36     7    35 1   
    37     8    36 1   
    38     8    37 1   
    39     9    38 1   
    40     9    39 1   
    41    10    40 1   
    42    10    41 1   
    43    11    42 1   
    44    11    43 1   
    45    14    44 1   
    46    15    45 1   
    47    16    46 1   
    48    17    47 1   
    49    20    48 1   
    50    21    49 1   
    51    22    50 1   
    52    23    51 1   
@<TRIPOS>SUBSTRUCTURE
     1 UNL         1 TEMP              0 ****  ****    0 ROOT
