@<TRIPOS>MOLECULE
4735
   51    52     1     0     0
SMALL
bcc


@<TRIPOS>ATOM
      1 O1           4.7690    -0.3290    13.4690 os         1 UNL      -0.308900
      2 O2           5.8180    -1.9980     7.5800 os         1 UNL      -0.308900
      3 N3           5.1870     6.1010    13.7520 nh         1 UNL      -0.471600
      4 N4           6.8600    -7.5550     4.4750 nh         1 UNL      -0.471600
      5 N5           2.8970     5.7680    13.4290 nh         1 UNL      -0.455700
      6 N6           5.4450    -6.4210     3.0010 nh         1 UNL      -0.455700
      7 C7           5.0520    -2.7000    11.1030 c3         1 UNL      -0.079400
      8 C8           4.4940    -1.2840    11.2720 c3         1 UNL      -0.100900
      9 C9           5.1910    -3.0690     9.6270 c3         1 UNL      -0.100900
     10 C10          3.8770    -1.0680    12.6480 c3         1 UNL       0.122900
     11 C11          6.2260    -2.2010     8.9260 c3         1 UNL       0.122900
     12 C12          4.6050     1.0320    13.4930 ca         1 UNL       0.207100
     13 C13          5.8860    -3.0810     6.7430 ca         1 UNL       0.207100
     14 C14          3.7930     1.6200    14.4640 ca         1 UNL      -0.183750
     15 C15          5.1010    -3.1230     5.5900 ca         1 UNL      -0.183750
     16 C16          5.2520     1.8290    12.5490 ca         1 UNL      -0.183750
     17 C17          6.7420    -4.1420     7.0420 ca         1 UNL      -0.183750
     18 C18          4.2740     3.8020    13.5450 ca         1 UNL      -0.309400
     19 C19          6.0280    -5.2840     5.0370 ca         1 UNL      -0.309400
     20 C20          3.6270     3.0040    14.4890 ca         1 UNL      -0.038000
     21 C21          5.1720    -4.2240     4.7380 ca         1 UNL      -0.038000
     22 C22          5.0860     3.2140    12.5750 ca         1 UNL      -0.038000
     23 C23          6.8130    -5.2430     6.1890 ca         1 UNL      -0.038000
     24 C24          4.1020     5.2460    13.5720 ce         1 UNL       0.528900
     25 C25          6.1020    -6.4330     4.1480 ce         1 UNL       0.528900
     26 H1           6.0680     5.8640    13.3810 hn         1 UNL       0.326450
     27 H2           5.0730     6.9430    14.2490 hn         1 UNL       0.326450
     28 H3           7.0490    -8.2390     3.7920 hn         1 UNL       0.326450
     29 H4           7.2080    -7.6650     5.3900 hn         1 UNL       0.326450
     30 H5           2.7790     6.7450    13.4470 hn         1 UNL       0.326450
     31 H6           2.1180     5.1800    13.3030 hn         1 UNL       0.326450
     32 H7           5.4940    -7.1970     2.3980 hn         1 UNL       0.326450
     33 H8           4.9070    -5.6360     2.7510 hn         1 UNL       0.326450
     34 H9           4.3890    -3.3950    11.5750 hc         1 UNL       0.055200
     35 H10          6.0220    -2.7370    11.5530 hc         1 UNL       0.055200
     36 H11          3.7440    -1.1180    10.5280 hc         1 UNL       0.064950
     37 H12          5.3070    -0.5960    11.1660 hc         1 UNL       0.064950
     38 H13          4.2440    -2.9370     9.1460 hc         1 UNL       0.064950
     39 H14          5.5120    -4.0880     9.5660 hc         1 UNL       0.064950
     40 H15          2.9600    -0.5270    12.5440 h1         1 UNL       0.065450
     41 H16          3.6870    -2.0190    13.1020 h1         1 UNL       0.065450
     42 H17          6.3010    -1.2570     9.4250 h1         1 UNL       0.065450
     43 H18          7.1800    -2.6850     8.9470 h1         1 UNL       0.065450
     44 H19          3.3150     1.0300    15.1620 ha         1 UNL       0.173750
     45 H20          4.4680    -2.3380     5.3690 ha         1 UNL       0.173750
     46 H21          5.8530     1.3950    11.8310 ha         1 UNL       0.173750
     47 H22          7.3230    -4.1110     7.8950 ha         1 UNL       0.173750
     48 H23          3.0270     3.4390    15.2070 ha         1 UNL       0.151000
     49 H24          4.5910    -4.2550     3.8850 ha         1 UNL       0.151000
     50 H25          5.5640     3.8040    11.8760 ha         1 UNL       0.151000
     51 H26          7.4460    -6.0270     6.4110 ha         1 UNL       0.151000
@<TRIPOS>BOND
     1     1    10 1   
     2     1    12 1   
     3     2    11 1   
     4     2    13 1   
     5     3    24 2   
     6     4    25 2   
     7     5    24 1   
     8     6    25 1   
     9     7     8 1   
    10     7     9 1   
    11     8    10 1   
    12     9    11 1   
    13    12    14 ar  
    14    12    16 ar  
    15    13    15 ar  
    16    13    17 ar  
    17    14    20 ar  
    18    15    21 ar  
    19    16    22 ar  
    20    17    23 ar  
    21    18    20 ar  
    22    18    22 ar  
    23    18    24 1   
    24    19    21 ar  
    25    19    23 ar  
    26    19    25 1   
    27     3    26 1   
    28     3    27 1   
    29     4    28 1   
    30     4    29 1   
    31     5    30 1   
    32     5    31 1   
    33     6    32 1   
    34     6    33 1   
    35     7    34 1   
    36     7    35 1   
    37     8    36 1   
    38     8    37 1   
    39     9    38 1   
    40     9    39 1   
    41    10    40 1   
    42    10    41 1   
    43    11    42 1   
    44    11    43 1   
    45    14    44 1   
    46    15    45 1   
    47    16    46 1   
    48    17    47 1   
    49    20    48 1   
    50    21    49 1   
    51    22    50 1   
    52    23    51 1   
@<TRIPOS>SUBSTRUCTURE
     1 UNL         1 TEMP              0 ****  ****    0 ROOT
