@<TRIPOS>MOLECULE
4735
   51    52     1     0     0
SMALL
bcc


@<TRIPOS>ATOM
      1 O1           6.6160    -2.6920     8.0160 os         1 UNL      -0.309400
      2 O2           6.3390     2.7300    11.8320 os         1 UNL      -0.309400
      3 N3           6.7580    -7.9760     4.3180 nh         1 UNL      -0.472100
      4 N4           3.1430     6.7620    15.7240 nh         1 UNL      -0.472100
      5 N5           5.4920    -6.4980     3.0240 nh         1 UNL      -0.456200
      6 N6           1.4260     5.8670    14.4160 nh         1 UNL      -0.456200
      7 C7           6.0510     0.2150     9.4250 c3         1 UNL      -0.085400
      8 C8           5.6330    -1.2380     9.6690 c3         1 UNL      -0.086400
      9 C9           6.8800     0.7570    10.5870 c3         1 UNL      -0.086400
     10 C10          5.4250    -2.0040     8.3690 c3         1 UNL       0.124400
     11 C11          6.0000     1.3590    11.6730 c3         1 UNL       0.124400
     12 C12          6.5050    -3.6780     7.0700 ca         1 UNL       0.207100
     13 C13          5.4550     3.5080    12.5340 ca         1 UNL       0.207100
     14 C14          5.6430    -3.5100     5.9860 ca         1 UNL      -0.184000
     15 C15          5.1570     4.7970    12.0900 ca         1 UNL      -0.184000
     16 C16          7.2560    -4.8470     7.1900 ca         1 UNL      -0.184000
     17 C17          4.8540     3.0110    13.6900 ca         1 UNL      -0.184000
     18 C18          6.2820    -5.6820     5.1420 ca         1 UNL      -0.309900
     19 C19          3.6540     5.0910    13.9590 ca         1 UNL      -0.309900
     20 C20          5.5310    -4.5130     5.0220 ca         1 UNL      -0.037750
     21 C21          4.2560     5.5880    12.8030 ca         1 UNL      -0.037750
     22 C22          7.1440    -5.8500     6.2260 ca         1 UNL      -0.037750
     23 C23          3.9530     3.8020    14.4030 ca         1 UNL      -0.037750
     24 C24          6.1660    -6.7270     4.1370 ce         1 UNL       0.529400
     25 C25          2.7150     5.9160    14.7030 ce         1 UNL       0.529400
     26 H1           6.8320    -8.6000     3.5600 hn         1 UNL       0.326450
     27 H2           7.1010    -8.2340     5.2040 hn         1 UNL       0.326450
     28 H3           2.4930     7.1230    16.3690 hn         1 UNL       0.326450
     29 H4           4.0960     6.9990    15.7990 hn         1 UNL       0.326450
     30 H5           5.4130    -7.2040     2.3430 hn         1 UNL       0.326450
     31 H6           5.0690    -5.6210     2.8760 hn         1 UNL       0.326450
     32 H7           0.7880     6.4240    14.9180 hn         1 UNL       0.326450
     33 H8           1.1030     5.2730    13.7000 hn         1 UNL       0.326450
     34 H9           5.1730     0.8170     9.3130 hc         1 UNL       0.058700
     35 H10          6.6490     0.2500     8.5380 hc         1 UNL       0.058700
     36 H11          4.7170    -1.2440    10.2230 hc         1 UNL       0.069200
     37 H12          6.4190    -1.7190    10.2120 hc         1 UNL       0.069200
     38 H13          7.5430     1.5120    10.2190 hc         1 UNL       0.069200
     39 H14          7.4280    -0.0570    11.0140 hc         1 UNL       0.069200
     40 H15          4.6320    -2.7110     8.4960 h1         1 UNL       0.054200
     41 H16          5.1730    -1.3140     7.5900 h1         1 UNL       0.054200
     42 H17          4.9720     1.2730    11.3910 h1         1 UNL       0.054200
     43 H18          6.1530     0.8380    12.5950 h1         1 UNL       0.054200
     44 H19          5.0880    -2.6450     5.8970 ha         1 UNL       0.173750
     45 H20          5.6020     5.1640    11.2350 ha         1 UNL       0.173750
     46 H21          7.8940    -4.9710     7.9910 ha         1 UNL       0.173750
     47 H22          5.0750     2.0580    14.0170 ha         1 UNL       0.173750
     48 H23          4.8930    -4.3890     4.2210 ha         1 UNL       0.151000
     49 H24          4.0350     6.5410    12.4760 ha         1 UNL       0.151000
     50 H25          7.6990    -6.7150     6.3150 ha         1 UNL       0.151000
     51 H26          3.5080     3.4350    15.2580 ha         1 UNL       0.151000
@<TRIPOS>BOND
     1     1    10 1   
     2     1    12 1   
     3     2    11 1   
     4     2    13 1   
     5     3    24 2   
     6     4    25 2   
     7     5    24 1   
     8     6    25 1   
     9     7     8 1   
    10     7     9 1   
    11     8    10 1   
    12     9    11 1   
    13    12    14 ar  
    14    12    16 ar  
    15    13    15 ar  
    16    13    17 ar  
    17    14    20 ar  
    18    15    21 ar  
    19    16    22 ar  
    20    17    23 ar  
    21    18    20 ar  
    22    18    22 ar  
    23    18    24 1   
    24    19    21 ar  
    25    19    23 ar  
    26    19    25 1   
    27     3    26 1   
    28     3    27 1   
    29     4    28 1   
    30     4    29 1   
    31     5    30 1   
    32     5    31 1   
    33     6    32 1   
    34     6    33 1   
    35     7    34 1   
    36     7    35 1   
    37     8    36 1   
    38     8    37 1   
    39     9    38 1   
    40     9    39 1   
    41    10    40 1   
    42    10    41 1   
    43    11    42 1   
    44    11    43 1   
    45    14    44 1   
    46    15    45 1   
    47    16    46 1   
    48    17    47 1   
    49    20    48 1   
    50    21    49 1   
    51    22    50 1   
    52    23    51 1   
@<TRIPOS>SUBSTRUCTURE
     1 UNL         1 TEMP              0 ****  ****    0 ROOT
