@<TRIPOS>MOLECULE
4735
   51    52     1     0     0
SMALL
bcc


@<TRIPOS>ATOM
      1 O1           7.2130    -3.0010     8.2330 os         1 UNL      -0.308400
      2 O2           5.2410     1.9830    11.5840 os         1 UNL      -0.308400
      3 N3           5.4230    -6.3860     3.0420 nh         1 UNL      -0.471600
      4 N4           1.8870     6.8280    14.2060 nh         1 UNL      -0.471600
      5 N5           6.5990    -7.9740     4.2890 nh         1 UNL      -0.455700
      6 N6           3.7260     6.6670    15.6380 nh         1 UNL      -0.455700
      7 C7           5.8080     0.0140     9.9240 c3         1 UNL      -0.079400
      8 C8           6.8960    -0.8530     9.2830 c3         1 UNL      -0.087400
      9 C9           5.5710    -0.3800    11.3800 c3         1 UNL      -0.087400
     10 C10          6.3170    -1.9040     8.3440 c3         1 UNL       0.125400
     11 C11          5.6390     0.8260    12.3070 c3         1 UNL       0.125400
     12 C12          6.9560    -3.9120     7.2420 ca         1 UNL       0.207600
     13 C13          4.7170     3.0180    12.3130 ca         1 UNL       0.207600
     14 C14          7.4010    -5.2280     7.3720 ca         1 UNL      -0.183750
     15 C15          4.7560     4.3180    11.8070 ca         1 UNL      -0.183750
     16 C16          6.2480    -3.5240     6.1040 ca         1 UNL      -0.183750
     17 C17          4.1430     2.7720    13.5610 ca         1 UNL      -0.183750
     18 C18          6.4300    -5.7680     5.2260 ca         1 UNL      -0.309900
     19 C19          3.6470     5.1250    13.7960 ca         1 UNL      -0.309900
     20 C20          7.1380    -6.1560     6.3640 ca         1 UNL      -0.037750
     21 C21          4.2210     5.3710    12.5490 ca         1 UNL      -0.037750
     22 C22          5.9850    -4.4520     5.0960 ca         1 UNL      -0.037750
     23 C23          3.6080     3.8260    14.3020 ca         1 UNL      -0.037750
     24 C24          6.1550    -6.7350     4.1760 ce         1 UNL       0.528900
     25 C25          3.0880     6.2230    14.5690 ce         1 UNL       0.528900
     26 H1           4.5140    -6.0200     3.1370 hn         1 UNL       0.326450
     27 H2           5.8150    -6.5060     2.1470 hn         1 UNL       0.326450
     28 H3           1.7970     7.2530    13.3220 hn         1 UNL       0.326450
     29 H4           1.1270     6.8310    14.8320 hn         1 UNL       0.326450
     30 H5           6.4140    -8.6310     3.5790 hn         1 UNL       0.326450
     31 H6           7.1150    -8.2410     5.0840 hn         1 UNL       0.326450
     32 H7           3.3500     7.4100    16.1620 hn         1 UNL       0.326450
     33 H8           4.5780     6.2550    15.9090 hn         1 UNL       0.326450
     34 H9           4.8960    -0.1100     9.3770 hc         1 UNL       0.057200
     35 H10          6.1290     1.0340     9.8970 hc         1 UNL       0.057200
     36 H11          7.4430    -1.3470    10.0590 hc         1 UNL       0.068200
     37 H12          7.5300    -0.2120     8.7070 hc         1 UNL       0.068200
     38 H13          6.3190    -1.0860    11.6750 hc         1 UNL       0.068200
     39 H14          4.5920    -0.8050    11.4570 hc         1 UNL       0.068200
     40 H15          5.3810    -2.2490     8.7320 h1         1 UNL       0.053700
     41 H16          6.1700    -1.4700     7.3780 h1         1 UNL       0.053700
     42 H17          4.9820     0.6780    13.1380 h1         1 UNL       0.053700
     43 H18          6.6380     0.9500    12.6690 h1         1 UNL       0.053700
     44 H19          7.9240    -5.5150     8.2130 ha         1 UNL       0.173500
     45 H20          5.1800     4.5000    10.8850 ha         1 UNL       0.173500
     46 H21          5.9190    -2.5510     6.0080 ha         1 UNL       0.173500
     47 H22          4.1140     1.8110    13.9350 ha         1 UNL       0.173500
     48 H23          7.4670    -7.1290     6.4600 ha         1 UNL       0.151000
     49 H24          4.2490     6.3320    12.1750 ha         1 UNL       0.151000
     50 H25          5.4610    -4.1650     4.2550 ha         1 UNL       0.151000
     51 H26          3.1830     3.6440    15.2250 ha         1 UNL       0.151000
@<TRIPOS>BOND
     1     1    10 1   
     2     1    12 1   
     3     2    11 1   
     4     2    13 1   
     5     3    24 2   
     6     4    25 2   
     7     5    24 1   
     8     6    25 1   
     9     7     8 1   
    10     7     9 1   
    11     8    10 1   
    12     9    11 1   
    13    12    14 ar  
    14    12    16 ar  
    15    13    15 ar  
    16    13    17 ar  
    17    14    20 ar  
    18    15    21 ar  
    19    16    22 ar  
    20    17    23 ar  
    21    18    20 ar  
    22    18    22 ar  
    23    18    24 1   
    24    19    21 ar  
    25    19    23 ar  
    26    19    25 1   
    27     3    26 1   
    28     3    27 1   
    29     4    28 1   
    30     4    29 1   
    31     5    30 1   
    32     5    31 1   
    33     6    32 1   
    34     6    33 1   
    35     7    34 1   
    36     7    35 1   
    37     8    36 1   
    38     8    37 1   
    39     9    38 1   
    40     9    39 1   
    41    10    40 1   
    42    10    41 1   
    43    11    42 1   
    44    11    43 1   
    45    14    44 1   
    46    15    45 1   
    47    16    46 1   
    48    17    47 1   
    49    20    48 1   
    50    21    49 1   
    51    22    50 1   
    52    23    51 1   
@<TRIPOS>SUBSTRUCTURE
     1 UNL         1 TEMP              0 ****  ****    0 ROOT
