@<TRIPOS>MOLECULE
4735
   51    52     1     0     0
SMALL
bcc


@<TRIPOS>ATOM
      1 O1           8.8940     0.3400    11.8170 os         1 UNL      -0.306900
      2 O2           5.9510    -2.0840     7.6410 os         1 UNL      -0.306900
      3 N3           9.9420     5.5140     8.1090 nh         1 UNL      -0.471850
      4 N4           6.9970    -7.5110     4.3160 nh         1 UNL      -0.471850
      5 N5          11.2790     5.9580     9.9730 nh         1 UNL      -0.455950
      6 N6           5.4000    -6.4230     3.0010 nh         1 UNL      -0.455950
      7 C7           5.5370    -0.9590    10.7690 c3         1 UNL      -0.078400
      8 C8           6.8850    -0.2470    10.6190 c3         1 UNL      -0.088900
      9 C9           5.5130    -2.2710     9.9880 c3         1 UNL      -0.088900
     10 C10          7.5000     0.1110    11.9660 c3         1 UNL       0.124900
     11 C11          4.9060    -2.0900     8.6040 c3         1 UNL       0.124900
     12 C12          9.2680     1.5150    11.2170 ca         1 UNL       0.208100
     13 C13          6.0000    -3.1440     6.7740 ca         1 UNL       0.208100
     14 C14          9.6090     2.6190    11.9990 ca         1 UNL      -0.183250
     15 C15          5.1910    -3.1530     5.6370 ca         1 UNL      -0.183250
     16 C16          9.3100     1.6050     9.8260 ca         1 UNL      -0.183250
     17 C17          6.8590    -4.2130     7.0270 ca         1 UNL      -0.183250
     18 C18         10.0330     3.9040     9.9980 ca         1 UNL      -0.309400
     19 C19          6.1020    -5.3000     5.0060 ca         1 UNL      -0.309400
     20 C20          9.9910     3.8130    11.3890 ca         1 UNL      -0.038500
     21 C21          5.2420    -4.2310     4.7530 ca         1 UNL      -0.038500
     22 C22          9.6920     2.8000     9.2170 ca         1 UNL      -0.038500
     23 C23          6.9100    -5.2910     6.1430 ca         1 UNL      -0.038500
     24 C24         10.4320     5.1500     9.3620 ce         1 UNL       0.528900
     25 C25          6.1560    -6.4240     4.0850 ce         1 UNL       0.528900
     26 H1           9.1690     5.0390     7.7260 hn         1 UNL       0.326325
     27 H2          10.3670     6.2460     7.6080 hn         1 UNL       0.326325
     28 H3           7.4150    -7.6310     5.1990 hn         1 UNL       0.326325
     29 H4           7.1720    -8.1590     3.5960 hn         1 UNL       0.326325
     30 H5          11.5510     6.8020     9.5440 hn         1 UNL       0.326325
     31 H6          11.6390     5.7180    10.8570 hn         1 UNL       0.326325
     32 H7           5.4350    -7.1830     2.3760 hn         1 UNL       0.326325
     33 H8           4.8020    -5.6630     2.8190 hn         1 UNL       0.326325
     34 H9           4.7620    -0.3200    10.4000 hc         1 UNL       0.054200
     35 H10          5.3850    -1.1790    11.8050 hc         1 UNL       0.054200
     36 H11          6.7390     0.6520    10.0570 hc         1 UNL       0.069200
     37 H12          7.5550    -0.9150    10.1190 hc         1 UNL       0.069200
     38 H13          4.9320    -2.9880    10.5300 hc         1 UNL       0.069200
     39 H14          6.5220    -2.6080     9.8690 hc         1 UNL       0.069200
     40 H15          7.0340     0.9960    12.3450 h1         1 UNL       0.052950
     41 H16          7.3480    -0.6990    12.6490 h1         1 UNL       0.052950
     42 H17          4.2330    -2.8970     8.3980 h1         1 UNL       0.052950
     43 H18          4.3680    -1.1670     8.5610 h1         1 UNL       0.052950
     44 H19          9.5780     2.5510    13.0280 ha         1 UNL       0.174000
     45 H20          4.5550    -2.3620     5.4500 ha         1 UNL       0.174000
     46 H21          9.0580     0.7880     9.2480 ha         1 UNL       0.174000
     47 H22          7.4580    -4.2070     7.8680 ha         1 UNL       0.174000
     48 H23         10.2430     4.6300    11.9680 ha         1 UNL       0.151000
     49 H24          4.6440    -4.2380     3.9130 ha         1 UNL       0.151000
     50 H25          9.7230     2.8680     8.1870 ha         1 UNL       0.151000
     51 H26          7.5460    -6.0820     6.3300 ha         1 UNL       0.151000
@<TRIPOS>BOND
     1     1    10 1   
     2     1    12 1   
     3     2    11 1   
     4     2    13 1   
     5     3    24 2   
     6     4    25 2   
     7     5    24 1   
     8     6    25 1   
     9     7     8 1   
    10     7     9 1   
    11     8    10 1   
    12     9    11 1   
    13    12    14 ar  
    14    12    16 ar  
    15    13    15 ar  
    16    13    17 ar  
    17    14    20 ar  
    18    15    21 ar  
    19    16    22 ar  
    20    17    23 ar  
    21    18    20 ar  
    22    18    22 ar  
    23    18    24 1   
    24    19    21 ar  
    25    19    23 ar  
    26    19    25 1   
    27     3    26 1   
    28     3    27 1   
    29     4    28 1   
    30     4    29 1   
    31     5    30 1   
    32     5    31 1   
    33     6    32 1   
    34     6    33 1   
    35     7    34 1   
    36     7    35 1   
    37     8    36 1   
    38     8    37 1   
    39     9    38 1   
    40     9    39 1   
    41    10    40 1   
    42    10    41 1   
    43    11    42 1   
    44    11    43 1   
    45    14    44 1   
    46    15    45 1   
    47    16    46 1   
    48    17    47 1   
    49    20    48 1   
    50    21    49 1   
    51    22    50 1   
    52    23    51 1   
@<TRIPOS>SUBSTRUCTURE
     1 UNL         1 TEMP              0 ****  ****    0 ROOT
