@<TRIPOS>MOLECULE
4735
   51    52     1     0     0
SMALL
bcc


@<TRIPOS>ATOM
      1 O1           3.7320    -6.5530    13.5280 os         1 UNL      -0.306400
      2 O2           7.1770    -4.4350     8.9410 os         1 UNL      -0.306400
      3 N3          -1.9850    -8.8020    11.5640 nh         1 UNL      -0.471850
      4 N4           3.8790    -5.5770     3.5160 nh         1 UNL      -0.471850
      5 N5          -1.5000   -10.1960    13.3750 nh         1 UNL      -0.455950
      6 N6           5.9940    -6.4260     3.0000 nh         1 UNL      -0.455950
      7 C7           5.6660    -4.0540    11.8220 c3         1 UNL      -0.080400
      8 C8           5.2630    -4.7310    13.1360 c3         1 UNL      -0.099400
      9 C9           7.0170    -4.5660    11.3270 c3         1 UNL      -0.099400
     10 C10          3.8110    -5.1940    13.1240 c3         1 UNL       0.123400
     11 C11          6.8840    -5.3220    10.0130 c3         1 UNL       0.123400
     12 C12          2.5440    -7.1990    13.3020 ca         1 UNL       0.207600
     13 C13          6.6930    -4.7780     7.7060 ca         1 UNL       0.207600
     14 C14          1.6040    -7.3080    14.3260 ca         1 UNL      -0.183500
     15 C15          5.9420    -3.8590     6.9720 ca         1 UNL      -0.183500
     16 C16          2.2740    -7.7430    12.0460 ca         1 UNL      -0.183500
     17 C17          6.9520    -6.0440     7.1810 ca         1 UNL      -0.183500
     18 C18          0.1240    -8.5080    12.8410 ca         1 UNL      -0.309900
     19 C19          5.7110    -5.4730     5.1880 ca         1 UNL      -0.309900
     20 C20          0.3940    -7.9630    14.0960 ca         1 UNL      -0.038000
     21 C21          5.4510    -4.2070     5.7130 ca         1 UNL      -0.038000
     22 C22          1.0640    -8.3980    11.8160 ca         1 UNL      -0.038000
     23 C23          6.4620    -6.3910     5.9220 ca         1 UNL      -0.038000
     24 C24         -1.1370    -9.1900    12.6000 ce         1 UNL       0.528900
     25 C25          5.2000    -5.8350     3.8760 ce         1 UNL       0.528900
     26 H1          -1.6100    -8.5600    10.6860 hn         1 UNL       0.326325
     27 H2          -2.9580    -8.7710    11.7090 hn         1 UNL       0.326325
     28 H3           3.6830    -4.9980     2.7440 hn         1 UNL       0.326325
     29 H4           3.1410    -5.9730     4.0330 hn         1 UNL       0.326325
     30 H5          -2.3540   -10.6590    13.2140 hn         1 UNL       0.326325
     31 H6          -0.9160   -10.4830    14.1150 hn         1 UNL       0.326325
     32 H7           5.6500    -6.6720     2.1110 hn         1 UNL       0.326325
     33 H8           6.9300    -6.6200     3.2370 hn         1 UNL       0.326325
     34 H9           5.7290    -2.9980    11.9790 hc         1 UNL       0.053200
     35 H10          4.9260    -4.2840    11.0840 hc         1 UNL       0.053200
     36 H11          5.3960    -4.0340    13.9370 hc         1 UNL       0.064700
     37 H12          5.8820    -5.5940    13.2640 hc         1 UNL       0.064700
     38 H13          7.4310    -5.2220    12.0640 hc         1 UNL       0.064700
     39 H14          7.6540    -3.7220    11.1640 hc         1 UNL       0.064700
     40 H15          3.2410    -4.5900    13.7990 h1         1 UNL       0.064950
     41 H16          3.4190    -5.0980    12.1330 h1         1 UNL       0.064950
     42 H17          7.5720    -6.1410     9.9980 h1         1 UNL       0.064950
     43 H18          5.8890    -5.6990     9.9100 h1         1 UNL       0.064950
     44 H19          1.8040    -6.9050    15.2550 ha         1 UNL       0.174250
     45 H20          5.7500    -2.9220     7.3600 ha         1 UNL       0.174250
     46 H21          2.9690    -7.6620    11.2880 ha         1 UNL       0.174250
     47 H22          7.5080    -6.7230     7.7240 ha         1 UNL       0.174250
     48 H23         -0.3010    -8.0440    14.8540 ha         1 UNL       0.151000
     49 H24          4.8960    -3.5270     5.1700 ha         1 UNL       0.151000
     50 H25          0.8640    -8.8020    10.8870 ha         1 UNL       0.151000
     51 H26          6.6540    -7.3280     5.5340 ha         1 UNL       0.151000
@<TRIPOS>BOND
     1     1    10 1   
     2     1    12 1   
     3     2    11 1   
     4     2    13 1   
     5     3    24 2   
     6     4    25 2   
     7     5    24 1   
     8     6    25 1   
     9     7     8 1   
    10     7     9 1   
    11     8    10 1   
    12     9    11 1   
    13    12    14 ar  
    14    12    16 ar  
    15    13    15 ar  
    16    13    17 ar  
    17    14    20 ar  
    18    15    21 ar  
    19    16    22 ar  
    20    17    23 ar  
    21    18    20 ar  
    22    18    22 ar  
    23    18    24 1   
    24    19    21 ar  
    25    19    23 ar  
    26    19    25 1   
    27     3    26 1   
    28     3    27 1   
    29     4    28 1   
    30     4    29 1   
    31     5    30 1   
    32     5    31 1   
    33     6    32 1   
    34     6    33 1   
    35     7    34 1   
    36     7    35 1   
    37     8    36 1   
    38     8    37 1   
    39     9    38 1   
    40     9    39 1   
    41    10    40 1   
    42    10    41 1   
    43    11    42 1   
    44    11    43 1   
    45    14    44 1   
    46    15    45 1   
    47    16    46 1   
    48    17    47 1   
    49    20    48 1   
    50    21    49 1   
    51    22    50 1   
    52    23    51 1   
@<TRIPOS>SUBSTRUCTURE
     1 UNL         1 TEMP              0 ****  ****    0 ROOT
