@<TRIPOS>MOLECULE
4735
   51    52     1     0     0
SMALL
bcc


@<TRIPOS>ATOM
      1 O1           7.8210    -4.5140     8.3270 os         1 UNL      -0.308900
      2 O2           4.0470    -5.9500    12.7200 os         1 UNL      -0.308900
      3 N3           3.6120    -5.2870     3.5010 nh         1 UNL      -0.471600
      4 N4          -1.7790    -8.7210    12.7530 nh         1 UNL      -0.471600
      5 N5           5.5600    -6.2280     2.6150 nh         1 UNL      -0.455700
      6 N6          -0.4880   -10.2610    13.9440 nh         1 UNL      -0.455700
      7 C7           5.6670    -4.7200     9.9010 c3         1 UNL      -0.079400
      8 C8           6.9360    -5.4390    10.3710 c3         1 UNL      -0.100900
      9 C9           4.4110    -5.4220    10.4130 c3         1 UNL      -0.100900
     10 C10          7.9650    -5.5780     9.2570 c3         1 UNL       0.122900
     11 C11          3.9860    -4.8910    11.7750 c3         1 UNL       0.122900
     12 C12          7.1230    -4.7860     7.1790 ca         1 UNL       0.207100
     13 C13          2.9230    -6.7220    12.8580 ca         1 UNL       0.207100
     14 C14          7.0600    -6.0920     6.6930 ca         1 UNL      -0.183750
     15 C15          2.4970    -7.5290    11.8030 ca         1 UNL      -0.183750
     16 C16          6.4740    -3.7560     6.4970 ca         1 UNL      -0.183750
     17 C17          2.2060    -6.7030    14.0550 ca         1 UNL      -0.183750
     18 C18          5.7000    -5.3390     4.8440 ca         1 UNL      -0.309400
     19 C19          0.6370    -8.2960    13.1400 ca         1 UNL      -0.309400
     20 C20          6.3490    -6.3690     5.5260 ca         1 UNL      -0.038000
     21 C21          1.3540    -8.3160    11.9440 ca         1 UNL      -0.038000
     22 C22          5.7630    -4.0330     5.3290 ca         1 UNL      -0.038000
     23 C23          1.0630    -7.4890    14.1960 ca         1 UNL      -0.038000
     24 C24          4.9580    -5.6280     3.6270 ce         1 UNL       0.528900
     25 C25         -0.5550    -9.1170    13.2880 ce         1 UNL       0.528900
     26 H1           3.3450    -4.5480     2.9070 hn         1 UNL       0.326450
     27 H2           2.9290    -5.7860     4.0040 hn         1 UNL       0.326450
     28 H3          -2.6180    -8.9930    13.1890 hn         1 UNL       0.326450
     29 H4          -1.8040    -8.1690    11.9380 hn         1 UNL       0.326450
     30 H5           5.0590    -6.4240     1.7910 hn         1 UNL       0.326450
     31 H6           6.5090    -6.4790     2.6860 hn         1 UNL       0.326450
     32 H7          -1.2930   -10.8190    14.0450 hn         1 UNL       0.326450
     33 H8           0.3670   -10.5570    14.3330 hn         1 UNL       0.326450
     34 H9           5.6490    -4.7090     8.8320 hc         1 UNL       0.055200
     35 H10          5.6800    -3.7230    10.2900 hc         1 UNL       0.055200
     36 H11          6.6690    -6.4150    10.7190 hc         1 UNL       0.065200
     37 H12          7.3740    -4.8540    11.1520 hc         1 UNL       0.065200
     38 H13          4.6080    -6.4700    10.4950 hc         1 UNL       0.065200
     39 H14          3.6180    -5.2340     9.7200 hc         1 UNL       0.065200
     40 H15          8.9490    -5.5510     9.6770 h1         1 UNL       0.065200
     41 H16          7.8130    -6.5090     8.7520 h1         1 UNL       0.065200
     42 H17          4.6450    -4.1030    12.0750 h1         1 UNL       0.065200
     43 H18          2.9880    -4.5100    11.7210 h1         1 UNL       0.065200
     44 H19          7.5400    -6.8540     7.1980 ha         1 UNL       0.173750
     45 H20          3.0270    -7.5430    10.9180 ha         1 UNL       0.173750
     46 H21          6.5210    -2.7900     6.8560 ha         1 UNL       0.173750
     47 H22          2.5210    -6.1060    14.8350 ha         1 UNL       0.173750
     48 H23          6.3020    -7.3350     5.1670 ha         1 UNL       0.151000
     49 H24          1.0390    -8.9120    11.1630 ha         1 UNL       0.151000
     50 H25          5.2830    -3.2710     4.8240 ha         1 UNL       0.151000
     51 H26          0.5330    -7.4750    15.0810 ha         1 UNL       0.151000
@<TRIPOS>BOND
     1     1    10 1   
     2     1    12 1   
     3     2    11 1   
     4     2    13 1   
     5     3    24 2   
     6     4    25 2   
     7     5    24 1   
     8     6    25 1   
     9     7     8 1   
    10     7     9 1   
    11     8    10 1   
    12     9    11 1   
    13    12    14 ar  
    14    12    16 ar  
    15    13    15 ar  
    16    13    17 ar  
    17    14    20 ar  
    18    15    21 ar  
    19    16    22 ar  
    20    17    23 ar  
    21    18    20 ar  
    22    18    22 ar  
    23    18    24 1   
    24    19    21 ar  
    25    19    23 ar  
    26    19    25 1   
    27     3    26 1   
    28     3    27 1   
    29     4    28 1   
    30     4    29 1   
    31     5    30 1   
    32     5    31 1   
    33     6    32 1   
    34     6    33 1   
    35     7    34 1   
    36     7    35 1   
    37     8    36 1   
    38     8    37 1   
    39     9    38 1   
    40     9    39 1   
    41    10    40 1   
    42    10    41 1   
    43    11    42 1   
    44    11    43 1   
    45    14    44 1   
    46    15    45 1   
    47    16    46 1   
    48    17    47 1   
    49    20    48 1   
    50    21    49 1   
    51    22    50 1   
    52    23    51 1   
@<TRIPOS>SUBSTRUCTURE
     1 UNL         1 TEMP              0 ****  ****    0 ROOT
