@<TRIPOS>MOLECULE
4735
   51    52     1     0     0
SMALL
bcc


@<TRIPOS>ATOM
      1 O1           5.6430    -2.2470     7.7600 os         1 UNL      -0.308900
      2 O2           7.1200     0.9330    10.5490 os         1 UNL      -0.308900
      3 N3           5.5370    -6.4360     2.8550 nh         1 UNL      -0.471850
      4 N4          11.1300     5.9600    10.0530 nh         1 UNL      -0.471850
      5 N5           6.9570    -7.4920     4.3800 nh         1 UNL      -0.455950
      6 N6          10.2830     5.7860     7.8820 nh         1 UNL      -0.455950
      7 C7           5.7900    -1.7850    11.1830 c3         1 UNL      -0.083400
      8 C8           5.0350    -1.3620     9.9190 c3         1 UNL      -0.088400
      9 C9           7.2640    -1.3910    11.1050 c3         1 UNL      -0.088400
     10 C10          4.8810    -2.5100     8.9290 c3         1 UNL       0.123900
     11 C11          7.5080    -0.3340    10.0380 c3         1 UNL       0.123900
     12 C12          5.7760    -3.2750     6.8630 ca         1 UNL       0.207100
     13 C13          7.8970     2.0070    10.1990 ca         1 UNL       0.207100
     14 C14          5.2140    -3.1680     5.5900 ca         1 UNL      -0.183750
     15 C15          7.4190     3.3040    10.3840 ca         1 UNL      -0.183750
     16 C16          6.4750    -4.4280     7.2210 ca         1 UNL      -0.183750
     17 C17          9.1670     1.8010     9.6600 ca         1 UNL      -0.183750
     18 C18          6.0500    -5.3660     5.0360 ca         1 UNL      -0.308900
     19 C19          9.4810     4.1910     9.4900 ca         1 UNL      -0.308900
     20 C20          5.3510    -4.2130     4.6770 ca         1 UNL      -0.038250
     21 C21          8.2110     4.3960    10.0300 ca         1 UNL      -0.038250
     22 C22          6.6120    -5.4730     6.3080 ca         1 UNL      -0.038250
     23 C23          9.9590     2.8940     9.3060 ca         1 UNL      -0.038250
     24 C24          6.1940    -6.4550     4.0830 ce         1 UNL       0.528400
     25 C25         10.3080     5.3290     9.1210 ce         1 UNL       0.528400
     26 H1           4.5530    -6.4670     2.8220 hn         1 UNL       0.326575
     27 H2           6.0560    -6.3910     2.0190 hn         1 UNL       0.326575
     28 H3          11.3060     6.9260     9.9800 hn         1 UNL       0.326575
     29 H4          11.5360     5.4400    10.7840 hn         1 UNL       0.326575
     30 H5           7.0560    -8.2310     3.7370 hn         1 UNL       0.326575
     31 H6           7.4270    -7.5260     5.2440 hn         1 UNL       0.326575
     32 H7          10.8410     6.5570     7.6300 hn         1 UNL       0.326575
     33 H8           9.7060     5.3560     7.2100 hn         1 UNL       0.326575
     34 H9           5.7180    -2.8470    11.2930 hc         1 UNL       0.061700
     35 H10          5.3510    -1.2870    12.0210 hc         1 UNL       0.061700
     36 H11          5.5730    -0.5680     9.4450 hc         1 UNL       0.066700
     37 H12          4.0550    -1.0480    10.2120 hc         1 UNL       0.066700
     38 H13          7.8430    -2.2600    10.8720 hc         1 UNL       0.066700
     39 H14          7.5510    -0.9830    12.0520 hc         1 UNL       0.066700
     40 H15          5.2260    -3.4170     9.3800 h1         1 UNL       0.053700
     41 H16          3.8500    -2.6090     8.6620 h1         1 UNL       0.053700
     42 H17          8.5470    -0.3150     9.7810 h1         1 UNL       0.053700
     43 H18          6.9360    -0.5630     9.1630 h1         1 UNL       0.053700
     44 H19          4.6970    -2.3150     5.3250 ha         1 UNL       0.174000
     45 H20          6.4800     3.4560    10.7830 ha         1 UNL       0.174000
     46 H21          6.8910    -4.5070     8.1630 ha         1 UNL       0.174000
     47 H22          9.5210     0.8420     9.5240 ha         1 UNL       0.174000
     48 H23          4.9360    -4.1340     3.7360 ha         1 UNL       0.151250
     49 H24          7.8580     5.3560    10.1660 ha         1 UNL       0.151250
     50 H25          7.1290    -6.3260     6.5730 ha         1 UNL       0.151250
     51 H26         10.8990     2.7420     8.9070 ha         1 UNL       0.151250
@<TRIPOS>BOND
     1     1    10 1   
     2     1    12 1   
     3     2    11 1   
     4     2    13 1   
     5     3    24 2   
     6     4    25 2   
     7     5    24 1   
     8     6    25 1   
     9     7     8 1   
    10     7     9 1   
    11     8    10 1   
    12     9    11 1   
    13    12    14 ar  
    14    12    16 ar  
    15    13    15 ar  
    16    13    17 ar  
    17    14    20 ar  
    18    15    21 ar  
    19    16    22 ar  
    20    17    23 ar  
    21    18    20 ar  
    22    18    22 ar  
    23    18    24 1   
    24    19    21 ar  
    25    19    23 ar  
    26    19    25 1   
    27     3    26 1   
    28     3    27 1   
    29     4    28 1   
    30     4    29 1   
    31     5    30 1   
    32     5    31 1   
    33     6    32 1   
    34     6    33 1   
    35     7    34 1   
    36     7    35 1   
    37     8    36 1   
    38     8    37 1   
    39     9    38 1   
    40     9    39 1   
    41    10    40 1   
    42    10    41 1   
    43    11    42 1   
    44    11    43 1   
    45    14    44 1   
    46    15    45 1   
    47    16    46 1   
    48    17    47 1   
    49    20    48 1   
    50    21    49 1   
    51    22    50 1   
    52    23    51 1   
@<TRIPOS>SUBSTRUCTURE
     1 UNL         1 TEMP              0 ****  ****    0 ROOT
