@<TRIPOS>MOLECULE
65130
   54    55     1     0     0
SMALL
bcc


@<TRIPOS>ATOM
      1 O1           5.0930    -1.6770    14.2640 os         1 UNL      -0.309400
      2 O2           6.3400    -3.3240     8.7690 os         1 UNL      -0.309400
      3 N3           0.4080     1.6540    17.1890 nh         1 UNL      -0.472100
      4 N4           5.7820    -6.2140     3.0290 nh         1 UNL      -0.472100
      5 N5          -0.7940     0.3140    15.6990 nh         1 UNL      -0.456200
      6 N6           6.7080    -7.9060     4.3490 nh         1 UNL      -0.456200
      7 C7           5.7440    -1.1160    11.2590 c3         1 UNL      -0.082400
      8 C8           4.4680    -1.9580    11.3060 c3         1 UNL      -0.082400
      9 C9           6.6430    -1.4020    12.4600 c3         1 UNL      -0.086900
     10 C10          4.4200    -2.9580    10.1530 c3         1 UNL      -0.086900
     11 C11          6.0800    -0.7990    13.7390 c3         1 UNL       0.124400
     12 C12          5.2190    -2.4710     8.9520 c3         1 UNL       0.124400
     13 C13          3.9400    -1.1020    14.7330 ca         1 UNL       0.208100
     14 C14          6.3240    -4.1390     7.6670 ca         1 UNL       0.208100
     15 C15          3.1920    -1.7440    15.7200 ca         1 UNL      -0.184500
     16 C16          6.7910    -5.4500     7.7620 ca         1 UNL      -0.184500
     17 C17          3.5170     0.1260    14.2250 ca         1 UNL      -0.184500
     18 C18          5.8380    -3.6580     6.4510 ca         1 UNL      -0.184500
     19 C19          1.5970     0.0700    15.6910 ca         1 UNL      -0.310900
     20 C20          6.2860    -5.7990     5.4250 ca         1 UNL      -0.310900
     21 C21          2.0210    -1.1580    16.1990 ca         1 UNL      -0.037500
     22 C22          6.7720    -6.2800     6.6410 ca         1 UNL      -0.037500
     23 C23          2.3450     0.7120    14.7040 ca         1 UNL      -0.037500
     24 C24          5.8190    -4.4880     5.3300 ca         1 UNL      -0.037500
     25 C25          0.3760     0.6820    16.1910 ce         1 UNL       0.529400
     26 C26          6.2660    -6.6640     4.2560 ce         1 UNL       0.529400
     27 H1           1.2410     1.8230    17.6850 hn         1 UNL       0.326075
     28 H2          -0.4030     2.1710    17.3980 hn         1 UNL       0.326075
     29 H3           5.4070    -6.8550     2.3830 hn         1 UNL       0.326075
     30 H4           5.8160    -5.2550     2.8090 hn         1 UNL       0.326075
     31 H5          -1.6220     0.7270    16.0360 hn         1 UNL       0.326075
     32 H6          -0.8370    -0.3740    14.9950 hn         1 UNL       0.326075
     33 H7           6.6950    -8.4930     3.5590 hn         1 UNL       0.326075
     34 H8           7.0510    -8.2440     5.2080 hn         1 UNL       0.326075
     35 H9           5.4780    -0.0800    11.2620 hc         1 UNL       0.051950
     36 H10          6.2810    -1.3670    10.3680 hc         1 UNL       0.051950
     37 H11          3.6200    -1.3090    11.2400 hc         1 UNL       0.051950
     38 H12          4.4580    -2.5040    12.2260 hc         1 UNL       0.051950
     39 H13          7.6110    -0.9830    12.2760 hc         1 UNL       0.067950
     40 H14          6.7030    -2.4620    12.5880 hc         1 UNL       0.067950
     41 H15          3.4010    -3.0990     9.8580 hc         1 UNL       0.067950
     42 H16          4.8510    -3.8780    10.4900 hc         1 UNL       0.067950
     43 H17          6.8660    -0.6740    14.4540 h1         1 UNL       0.053700
     44 H18          5.6430     0.1550    13.5300 h1         1 UNL       0.053700
     45 H19          4.6030    -2.4940     8.0780 h1         1 UNL       0.053700
     46 H20          5.5500    -1.4670     9.1200 h1         1 UNL       0.053700
     47 H21          3.5060    -2.6530    16.0960 ha         1 UNL       0.173500
     48 H22          7.1500    -5.8060     8.6620 ha         1 UNL       0.173500
     49 H23          4.0700     0.6010    13.4950 ha         1 UNL       0.173500
     50 H24          5.4920    -2.6880     6.3810 ha         1 UNL       0.173500
     51 H25          1.4670    -1.6330    16.9290 ha         1 UNL       0.150500
     52 H26          7.1170    -7.2500     6.7110 ha         1 UNL       0.150500
     53 H27          2.0320     1.6210    14.3280 ha         1 UNL       0.150500
     54 H28          5.4590    -4.1320     4.4310 ha         1 UNL       0.150500
@<TRIPOS>BOND
     1     1    11 1   
     2     1    13 1   
     3     2    12 1   
     4     2    14 1   
     5     3    25 2   
     6     4    26 2   
     7     5    25 1   
     8     6    26 1   
     9     7     8 1   
    10     7     9 1   
    11     8    10 1   
    12     9    11 1   
    13    10    12 1   
    14    13    15 ar  
    15    13    17 ar  
    16    14    16 ar  
    17    14    18 ar  
    18    15    21 ar  
    19    16    22 ar  
    20    17    23 ar  
    21    18    24 ar  
    22    19    21 ar  
    23    19    23 ar  
    24    19    25 1   
    25    20    22 ar  
    26    20    24 ar  
    27    20    26 1   
    28     3    27 1   
    29     3    28 1   
    30     4    29 1   
    31     4    30 1   
    32     5    31 1   
    33     5    32 1   
    34     6    33 1   
    35     6    34 1   
    36     7    35 1   
    37     7    36 1   
    38     8    37 1   
    39     8    38 1   
    40     9    39 1   
    41     9    40 1   
    42    10    41 1   
    43    10    42 1   
    44    11    43 1   
    45    11    44 1   
    46    12    45 1   
    47    12    46 1   
    48    15    47 1   
    49    16    48 1   
    50    17    49 1   
    51    18    50 1   
    52    21    51 1   
    53    22    52 1   
    54    23    53 1   
    55    24    54 1   
@<TRIPOS>SUBSTRUCTURE
     1 UNL         1 TEMP              0 ****  ****    0 ROOT
