@<TRIPOS>MOLECULE
65130
   54    55     1     0     0
SMALL
bcc


@<TRIPOS>ATOM
      1 O1           6.8710     2.8460    12.1930 os         1 UNL      -0.306900
      2 O2           6.7880    -2.7920     8.2420 os         1 UNL      -0.306900
      3 N3           1.6040     5.6540    14.6390 nh         1 UNL      -0.472350
      4 N4           6.7400    -7.9540     4.3750 nh         1 UNL      -0.472350
      5 N5           3.2810     7.1880    15.1820 nh         1 UNL      -0.456450
      6 N6           5.5910    -6.3670     3.1000 nh         1 UNL      -0.456450
      7 C7           5.8070     0.2940     9.6610 c3         1 UNL      -0.081400
      8 C8           5.5740    -0.7450    10.7590 c3         1 UNL      -0.081400
      9 C9           6.4670     1.5530    10.2190 c3         1 UNL      -0.088400
     10 C10          6.3310    -2.0390    10.4690 c3         1 UNL      -0.088400
     11 C11          6.4630     1.5620    11.7410 c3         1 UNL       0.124900
     12 C12          5.7790    -2.7500     9.2420 c3         1 UNL       0.124900
     13 C13          5.9130     3.6260    12.7870 ca         1 UNL       0.209100
     14 C14          6.6480    -3.7390     7.2620 ca         1 UNL       0.209100
     15 C15          6.1720     4.9700    13.0510 ca         1 UNL      -0.184000
     16 C16          5.6260    -3.6240     6.3200 ca         1 UNL      -0.184000
     17 C17          4.6770     3.0750    13.1260 ca         1 UNL      -0.184000
     18 C18          7.5310    -4.8180     7.2040 ca         1 UNL      -0.184000
     19 C19          3.9610     5.2130    13.9920 ca         1 UNL      -0.310900
     20 C20          6.3680    -5.6660     5.2630 ca         1 UNL      -0.310900
     21 C21          5.1960     5.7640    13.6530 ca         1 UNL      -0.037500
     22 C22          5.4850    -4.5870     5.3210 ca         1 UNL      -0.037500
     23 C23          3.7010     3.8680    13.7280 ca         1 UNL      -0.037500
     24 C24          7.3910    -5.7810     6.2050 ca         1 UNL      -0.037500
     25 C25          2.9430     6.0410    14.6200 ce         1 UNL       0.529400
     26 C26          6.2220    -6.6690     4.2210 ce         1 UNL       0.529400
     27 H1           1.2900     4.9360    14.0430 hn         1 UNL       0.325950
     28 H2           0.9720     6.0980    15.2500 hn         1 UNL       0.325950
     29 H3           6.8430    -8.5400     3.5900 hn         1 UNL       0.325950
     30 H4           7.0020    -8.2760     5.2670 hn         1 UNL       0.325950
     31 H5           2.5940     7.7490    15.6070 hn         1 UNL       0.325950
     32 H6           4.2210     7.4800    15.1760 hn         1 UNL       0.325950
     33 H7           5.4920    -7.0460     2.3930 hn         1 UNL       0.325950
     34 H8           5.2210    -5.4640     2.9710 hn         1 UNL       0.325950
     35 H9           4.8660     0.5570     9.2250 hc         1 UNL       0.051450
     36 H10          6.4590    -0.1320     8.9270 hc         1 UNL       0.051450
     37 H11          4.5270    -0.9590    10.8190 hc         1 UNL       0.051450
     38 H12          5.9320    -0.3440    11.6840 hc         1 UNL       0.051450
     39 H13          5.9330     2.4100     9.8650 hc         1 UNL       0.068200
     40 H14          7.4840     1.5720     9.8870 hc         1 UNL       0.068200
     41 H15          6.2440    -2.6890    11.3150 hc         1 UNL       0.068200
     42 H16          7.3550    -1.7920    10.2800 hc         1 UNL       0.068200
     43 H17          5.4780     1.3510    12.0990 h1         1 UNL       0.052450
     44 H18          7.1360     0.8170    12.1100 h1         1 UNL       0.052450
     45 H19          5.4900    -3.7470     9.5030 h1         1 UNL       0.052450
     46 H20          4.9230    -2.2250     8.8720 h1         1 UNL       0.052450
     47 H21          7.0870     5.3780    12.8000 ha         1 UNL       0.174000
     48 H22          4.9730    -2.8260     6.3630 ha         1 UNL       0.174000
     49 H23          4.4840     2.0800    12.9310 ha         1 UNL       0.174000
     50 H24          8.2880    -4.9040     7.9000 ha         1 UNL       0.174000
     51 H25          5.3890     6.7590    13.8480 ha         1 UNL       0.150500
     52 H26          4.7280    -4.5020     4.6250 ha         1 UNL       0.150500
     53 H27          2.7870     3.4610    13.9790 ha         1 UNL       0.150500
     54 H28          8.0440    -6.5790     6.1620 ha         1 UNL       0.150500
@<TRIPOS>BOND
     1     1    11 1   
     2     1    13 1   
     3     2    12 1   
     4     2    14 1   
     5     3    25 2   
     6     4    26 2   
     7     5    25 1   
     8     6    26 1   
     9     7     8 1   
    10     7     9 1   
    11     8    10 1   
    12     9    11 1   
    13    10    12 1   
    14    13    15 ar  
    15    13    17 ar  
    16    14    16 ar  
    17    14    18 ar  
    18    15    21 ar  
    19    16    22 ar  
    20    17    23 ar  
    21    18    24 ar  
    22    19    21 ar  
    23    19    23 ar  
    24    19    25 1   
    25    20    22 ar  
    26    20    24 ar  
    27    20    26 1   
    28     3    27 1   
    29     3    28 1   
    30     4    29 1   
    31     4    30 1   
    32     5    31 1   
    33     5    32 1   
    34     6    33 1   
    35     6    34 1   
    36     7    35 1   
    37     7    36 1   
    38     8    37 1   
    39     8    38 1   
    40     9    39 1   
    41     9    40 1   
    42    10    41 1   
    43    10    42 1   
    44    11    43 1   
    45    11    44 1   
    46    12    45 1   
    47    12    46 1   
    48    15    47 1   
    49    16    48 1   
    50    17    49 1   
    51    18    50 1   
    52    21    51 1   
    53    22    52 1   
    54    23    53 1   
    55    24    54 1   
@<TRIPOS>SUBSTRUCTURE
     1 UNL         1 TEMP              0 ****  ****    0 ROOT
