@<TRIPOS>MOLECULE
65130
   54    55     1     0     0
SMALL
bcc


@<TRIPOS>ATOM
      1 O1           2.7680    -1.0260    14.2640 os         1 UNL      -0.304900
      2 O2           7.6390    -3.8550     8.5390 os         1 UNL      -0.304900
      3 N3           1.6720     5.3000    14.8940 nh         1 UNL      -0.472600
      4 N4           3.8270    -5.4350     3.5820 nh         1 UNL      -0.472600
      5 N5           1.3530     4.5190    17.0740 nh         1 UNL      -0.456700
      6 N6           5.8410    -6.4710     3.0080 nh         1 UNL      -0.456700
      7 C7           4.5580    -2.6350    11.4410 c3         1 UNL      -0.081400
      8 C8           6.0540    -2.7140    11.7470 c3         1 UNL      -0.081400
      9 C9           3.7300    -2.5880    12.7240 c3         1 UNL      -0.100400
     10 C10          6.8870    -2.6540    10.4690 c3         1 UNL      -0.100400
     11 C11          3.0180    -1.2520    12.8830 c3         1 UNL       0.123400
     12 C12          6.9100    -3.9960     9.7500 c3         1 UNL       0.123400
     13 C13          2.4930     0.2630    14.6400 ca         1 UNL       0.209600
     14 C14          7.0350    -4.3120     7.3960 ca         1 UNL       0.209600
     15 C15          1.2720     0.5680    15.2410 ca         1 UNL      -0.184250
     16 C16          7.5980    -5.3720     6.6850 ca         1 UNL      -0.184250
     17 C17          3.4360     1.2680    14.4250 ca         1 UNL      -0.184250
     18 C18          5.8560    -3.7180     6.9460 ca         1 UNL      -0.184250
     19 C19          1.9350     2.8850    15.4110 ca         1 UNL      -0.311400
     20 C20          5.8020    -5.2440     5.0740 ca         1 UNL      -0.311400
     21 C21          0.9930     1.8800    15.6260 ca         1 UNL      -0.037750
     22 C22          6.9820    -5.8380     5.5240 ca         1 UNL      -0.037750
     23 C23          3.1570     2.5790    14.8100 ca         1 UNL      -0.037750
     24 C24          5.2390    -4.1840     5.7850 ca         1 UNL      -0.037750
     25 C25          1.6450     4.2520    15.8130 ce         1 UNL       0.529400
     26 C26          5.1590    -5.7300     3.8630 ce         1 UNL       0.529400
     27 H1           1.5680     6.2290    15.2030 hn         1 UNL       0.325950
     28 H2           1.7940     5.1110    13.9360 hn         1 UNL       0.325950
     29 H3           3.6050    -4.7890     2.8720 hn         1 UNL       0.325950
     30 H4           3.1070    -5.8720     4.0920 hn         1 UNL       0.325950
     31 H5           1.1560     5.4440    17.3480 hn         1 UNL       0.325950
     32 H6           1.3320     3.7940    17.7390 hn         1 UNL       0.325950
     33 H7           5.4080    -6.8010     2.1880 hn         1 UNL       0.325950
     34 H8           6.7830    -6.6930     3.1910 hn         1 UNL       0.325950
     35 H9           4.2720    -3.4970    10.8740 hc         1 UNL       0.050200
     36 H10          4.3730    -1.7390    10.8870 hc         1 UNL       0.050200
     37 H11          6.2580    -3.6340    12.2540 hc         1 UNL       0.050200
     38 H12          6.3170    -1.8780    12.3610 hc         1 UNL       0.050200
     39 H13          4.3790    -2.7380    13.5610 hc         1 UNL       0.064700
     40 H14          2.9880    -3.3570    12.6720 hc         1 UNL       0.064700
     41 H15          7.8890    -2.3780    10.7200 hc         1 UNL       0.064700
     42 H16          6.4430    -1.9330     9.8150 hc         1 UNL       0.064700
     43 H17          3.6350    -0.4670    12.4970 h1         1 UNL       0.062950
     44 H18          2.0940    -1.2660    12.3450 h1         1 UNL       0.062950
     45 H19          7.3820    -4.7280    10.3710 h1         1 UNL       0.062950
     46 H20          5.9100    -4.3110     9.5370 h1         1 UNL       0.062950
     47 H21          0.5750    -0.1760    15.4000 ha         1 UNL       0.173750
     48 H22          8.4700    -5.8110     7.0180 ha         1 UNL       0.173750
     49 H23          4.3390     1.0420    13.9810 ha         1 UNL       0.173750
     50 H24          5.4390    -2.9340     7.4720 ha         1 UNL       0.173750
     51 H25          0.0900     2.1060    16.0710 ha         1 UNL       0.150250
     52 H26          7.3980    -6.6220     4.9980 ha         1 UNL       0.150250
     53 H27          3.8540     3.3230    14.6510 ha         1 UNL       0.150250
     54 H28          4.3670    -3.7450     5.4520 ha         1 UNL       0.150250
@<TRIPOS>BOND
     1     1    11 1   
     2     1    13 1   
     3     2    12 1   
     4     2    14 1   
     5     3    25 2   
     6     4    26 2   
     7     5    25 1   
     8     6    26 1   
     9     7     8 1   
    10     7     9 1   
    11     8    10 1   
    12     9    11 1   
    13    10    12 1   
    14    13    15 ar  
    15    13    17 ar  
    16    14    16 ar  
    17    14    18 ar  
    18    15    21 ar  
    19    16    22 ar  
    20    17    23 ar  
    21    18    24 ar  
    22    19    21 ar  
    23    19    23 ar  
    24    19    25 1   
    25    20    22 ar  
    26    20    24 ar  
    27    20    26 1   
    28     3    27 1   
    29     3    28 1   
    30     4    29 1   
    31     4    30 1   
    32     5    31 1   
    33     5    32 1   
    34     6    33 1   
    35     6    34 1   
    36     7    35 1   
    37     7    36 1   
    38     8    37 1   
    39     8    38 1   
    40     9    39 1   
    41     9    40 1   
    42    10    41 1   
    43    10    42 1   
    44    11    43 1   
    45    11    44 1   
    46    12    45 1   
    47    12    46 1   
    48    15    47 1   
    49    16    48 1   
    50    17    49 1   
    51    18    50 1   
    52    21    51 1   
    53    22    52 1   
    54    23    53 1   
    55    24    54 1   
@<TRIPOS>SUBSTRUCTURE
     1 UNL         1 TEMP              0 ****  ****    0 ROOT
