@<TRIPOS>MOLECULE
65130
   54    55     1     0     0
SMALL
bcc


@<TRIPOS>ATOM
      1 O1           8.0890     2.6930     9.4700 os         1 UNL      -0.307400
      2 O2           6.1210    -2.0630     7.4600 os         1 UNL      -0.307400
      3 N3          12.8520     7.0130     8.9740 nh         1 UNL      -0.472850
      4 N4           6.9820    -7.7380     4.5170 nh         1 UNL      -0.472850
      5 N5          14.0060     5.0680     9.5630 nh         1 UNL      -0.456950
      6 N6           5.4140    -6.6950     3.1340 nh         1 UNL      -0.456950
      7 C7           6.0440     1.0380     9.5220 c3         1 UNL      -0.079400
      8 C8           6.1150    -0.2460    10.3490 c3         1 UNL      -0.079400
      9 C9           5.9300     2.2700    10.4170 c3         1 UNL      -0.086900
     10 C10          5.4030    -1.4000     9.6460 c3         1 UNL      -0.086900
     11 C11          6.9570     3.3310    10.0460 c3         1 UNL       0.124400
     12 C12          6.3750    -2.2550     8.8450 c3         1 UNL       0.124400
     13 C13          9.2520     3.4160     9.4290 ca         1 UNL       0.209600
     14 C14          6.1330    -3.1820     6.6680 ca         1 UNL       0.209600
     15 C15         10.4040     2.8530     8.8790 ca         1 UNL      -0.184750
     16 C16          5.4420    -3.1860     5.4560 ca         1 UNL      -0.184750
     17 C17          9.2840     4.7150     9.9360 ca         1 UNL      -0.184750
     18 C18          6.8370    -4.3160     7.0730 ca         1 UNL      -0.184750
     19 C19         11.6200     4.8890     9.3430 ca         1 UNL      -0.311900
     20 C20          6.1600    -5.4580     5.0540 ca         1 UNL      -0.311900
     21 C21         11.5880     3.5900     8.8360 ca         1 UNL      -0.037500
     22 C22          5.4560    -4.3240     4.6500 ca         1 UNL      -0.037500
     23 C23         10.4680     5.4520     9.8930 ca         1 UNL      -0.037500
     24 C24          6.8500    -5.4540     6.2660 ca         1 UNL      -0.037500
     25 C25         12.8540     5.6570     9.2980 ce         1 UNL       0.529400
     26 C26          6.1740    -6.6440     4.2130 ce         1 UNL       0.529400
     27 H1          13.6470     7.4210     8.5620 hn         1 UNL       0.325950
     28 H2          12.0560     7.5620     9.1590 hn         1 UNL       0.325950
     29 H3           7.0740    -8.0390     5.4500 hn         1 UNL       0.325950
     30 H4           7.4610    -8.2110     3.7980 hn         1 UNL       0.325950
     31 H5          14.8430     5.5860     9.5330 hn         1 UNL       0.325950
     32 H6          14.0290     4.1100     9.7910 hn         1 UNL       0.325950
     33 H7           5.4220    -7.4970     2.5630 hn         1 UNL       0.325950
     34 H8           4.8380    -5.9310     2.9010 hn         1 UNL       0.325950
     35 H9           5.1880     0.9930     8.8810 hc         1 UNL       0.049450
     36 H10          6.9430     1.1200     8.9480 hc         1 UNL       0.049450
     37 H11          5.6500    -0.0760    11.2970 hc         1 UNL       0.049450
     38 H12          7.1440    -0.5110    10.4730 hc         1 UNL       0.049450
     39 H13          6.0880     1.9760    11.4340 hc         1 UNL       0.067700
     40 H14          4.9550     2.6890    10.2870 hc         1 UNL       0.067700
     41 H15          4.6650    -1.0000     8.9830 hc         1 UNL       0.067700
     42 H16          4.9510    -2.0190    10.3930 hc         1 UNL       0.067700
     43 H17          6.5300     4.0120     9.3390 h1         1 UNL       0.053950
     44 H18          7.2520     3.8730    10.9200 h1         1 UNL       0.053950
     45 H19          7.3790    -1.9650     9.0700 h1         1 UNL       0.053950
     46 H20          6.2440    -3.2870     9.0980 h1         1 UNL       0.053950
     47 H21         10.3810     1.8920     8.5040 ha         1 UNL       0.174250
     48 H22          4.9210    -2.3470     5.1560 ha         1 UNL       0.174250
     49 H23          8.4320     5.1320    10.3430 ha         1 UNL       0.174250
     50 H24          7.3480    -4.3140     7.9700 ha         1 UNL       0.174250
     51 H25         12.4400     3.1740     8.4290 ha         1 UNL       0.150250
     52 H26          4.9450    -4.3270     3.7530 ha         1 UNL       0.150250
     53 H27         10.4920     6.4130    10.2680 ha         1 UNL       0.150250
     54 H28          7.3710    -6.2930     6.5660 ha         1 UNL       0.150250
@<TRIPOS>BOND
     1     1    11 1   
     2     1    13 1   
     3     2    12 1   
     4     2    14 1   
     5     3    25 2   
     6     4    26 2   
     7     5    25 1   
     8     6    26 1   
     9     7     8 1   
    10     7     9 1   
    11     8    10 1   
    12     9    11 1   
    13    10    12 1   
    14    13    15 ar  
    15    13    17 ar  
    16    14    16 ar  
    17    14    18 ar  
    18    15    21 ar  
    19    16    22 ar  
    20    17    23 ar  
    21    18    24 ar  
    22    19    21 ar  
    23    19    23 ar  
    24    19    25 1   
    25    20    22 ar  
    26    20    24 ar  
    27    20    26 1   
    28     3    27 1   
    29     3    28 1   
    30     4    29 1   
    31     4    30 1   
    32     5    31 1   
    33     5    32 1   
    34     6    33 1   
    35     6    34 1   
    36     7    35 1   
    37     7    36 1   
    38     8    37 1   
    39     8    38 1   
    40     9    39 1   
    41     9    40 1   
    42    10    41 1   
    43    10    42 1   
    44    11    43 1   
    45    11    44 1   
    46    12    45 1   
    47    12    46 1   
    48    15    47 1   
    49    16    48 1   
    50    17    49 1   
    51    18    50 1   
    52    21    51 1   
    53    22    52 1   
    54    23    53 1   
    55    24    54 1   
@<TRIPOS>SUBSTRUCTURE
     1 UNL         1 TEMP              0 ****  ****    0 ROOT
