@<TRIPOS>MOLECULE
65130
   54    55     1     0     0
SMALL
bcc


@<TRIPOS>ATOM
      1 O1           6.9750    -4.5040    13.9940 os         1 UNL      -0.303900
      2 O2           6.8150    -3.1760     8.5480 os         1 UNL      -0.303900
      3 N3          11.5320    -7.3570    10.4320 nh         1 UNL      -0.472100
      4 N4           4.0150    -5.7470     3.3380 nh         1 UNL      -0.472100
      5 N5          10.4250    -9.1850    11.3760 nh         1 UNL      -0.456200
      6 N6           6.1850    -6.6040     3.2080 nh         1 UNL      -0.456200
      7 C7           4.7860    -3.1030    11.7660 c3         1 UNL      -0.077400
      8 C8           4.6260    -1.8880    10.8510 c3         1 UNL      -0.077400
      9 C9           6.2570    -3.4620    11.9610 c3         1 UNL      -0.114400
     10 C10          4.7570    -2.2780     9.3810 c3         1 UNL      -0.114400
     11 C11          6.7030    -3.2420    13.4000 c3         1 UNL       0.121400
     12 C12          6.1420    -1.9580     8.8360 c3         1 UNL       0.121400
     13 C13          7.8430    -5.3280    13.3260 ca         1 UNL       0.209100
     14 C14          6.4490    -3.8290     7.4000 ca         1 UNL       0.209100
     15 C15          7.3590    -6.2280    12.3770 ca         1 UNL      -0.184000
     16 C16          6.6050    -5.2120     7.3050 ca         1 UNL      -0.184000
     17 C17          9.2110    -5.2650    13.5940 ca         1 UNL      -0.184000
     18 C18          5.9170    -3.1110     6.3290 ca         1 UNL      -0.184000
     19 C19          9.6100    -7.0020    11.9630 ca         1 UNL      -0.310900
     20 C20          5.6990    -5.1590     5.0660 ca         1 UNL      -0.310900
     21 C21          8.2430    -7.0650    11.6950 ca         1 UNL      -0.038500
     22 C22          6.2300    -5.8770     6.1370 ca         1 UNL      -0.038500
     23 C23         10.0940    -6.1020    12.9130 ca         1 UNL      -0.038500
     24 C24          5.5420    -3.7770     5.1620 ca         1 UNL      -0.038500
     25 C25         10.5320    -7.8740    11.2530 ce         1 UNL       0.529400
     26 C26          5.3070    -5.8530     3.8490 ce         1 UNL       0.529400
     27 H1          12.2580    -7.9410    10.1130 hn         1 UNL       0.326200
     28 H2          11.5140    -6.4080    10.1710 hn         1 UNL       0.326200
     29 H3           3.8590    -5.2770     2.4870 hn         1 UNL       0.326200
     30 H4           3.2580    -6.1420     3.8280 hn         1 UNL       0.326200
     31 H5          11.0470    -9.7780    10.8960 hn         1 UNL       0.326200
     32 H6           9.7220    -9.5700    11.9490 hn         1 UNL       0.326200
     33 H7           5.9220    -7.0740     2.3840 hn         1 UNL       0.326200
     34 H8           7.1020    -6.6940     3.5550 hn         1 UNL       0.326200
     35 H9           4.2790    -3.9380    11.3280 hc         1 UNL       0.051200
     36 H10          4.3670    -2.8640    12.7210 hc         1 UNL       0.051200
     37 H11          5.3830    -1.1700    11.0900 hc         1 UNL       0.051200
     38 H12          3.6510    -1.4760    11.0050 hc         1 UNL       0.051200
     39 H13          6.8530    -2.8500    11.3160 hc         1 UNL       0.057950
     40 H14          6.3830    -4.4990    11.7270 hc         1 UNL       0.057950
     41 H15          4.0280    -1.7390     8.8120 hc         1 UNL       0.057950
     42 H16          4.6020    -3.3330     9.3000 hc         1 UNL       0.057950
     43 H17          7.5870    -2.6400    13.4140 h1         1 UNL       0.074700
     44 H18          5.9310    -2.7420    13.9470 h1         1 UNL       0.074700
     45 H19          6.0510    -1.3780     7.9410 h1         1 UNL       0.074700
     46 H20          6.6970    -1.3990     9.5600 h1         1 UNL       0.074700
     47 H21          6.3480    -6.2740    12.1780 ha         1 UNL       0.174500
     48 H22          6.9990    -5.7430     8.0980 ha         1 UNL       0.174500
     49 H23          9.5690    -4.5990    14.2970 ha         1 UNL       0.174500
     50 H24          5.8010    -2.0880     6.4000 ha         1 UNL       0.174500
     51 H25          7.8850    -7.7300    10.9920 ha         1 UNL       0.150500
     52 H26          6.3460    -6.9000     6.0660 ha         1 UNL       0.150500
     53 H27         11.1060    -6.0560    13.1120 ha         1 UNL       0.150500
     54 H28          5.1490    -3.2460     4.3690 ha         1 UNL       0.150500
@<TRIPOS>BOND
     1     1    11 1   
     2     1    13 1   
     3     2    12 1   
     4     2    14 1   
     5     3    25 2   
     6     4    26 2   
     7     5    25 1   
     8     6    26 1   
     9     7     8 1   
    10     7     9 1   
    11     8    10 1   
    12     9    11 1   
    13    10    12 1   
    14    13    15 ar  
    15    13    17 ar  
    16    14    16 ar  
    17    14    18 ar  
    18    15    21 ar  
    19    16    22 ar  
    20    17    23 ar  
    21    18    24 ar  
    22    19    21 ar  
    23    19    23 ar  
    24    19    25 1   
    25    20    22 ar  
    26    20    24 ar  
    27    20    26 1   
    28     3    27 1   
    29     3    28 1   
    30     4    29 1   
    31     4    30 1   
    32     5    31 1   
    33     5    32 1   
    34     6    33 1   
    35     6    34 1   
    36     7    35 1   
    37     7    36 1   
    38     8    37 1   
    39     8    38 1   
    40     9    39 1   
    41     9    40 1   
    42    10    41 1   
    43    10    42 1   
    44    11    43 1   
    45    11    44 1   
    46    12    45 1   
    47    12    46 1   
    48    15    47 1   
    49    16    48 1   
    50    17    49 1   
    51    18    50 1   
    52    21    51 1   
    53    22    52 1   
    54    23    53 1   
    55    24    54 1   
@<TRIPOS>SUBSTRUCTURE
     1 UNL         1 TEMP              0 ****  ****    0 ROOT
