@<TRIPOS>MOLECULE
65130
   54    55     1     0     0
SMALL
bcc


@<TRIPOS>ATOM
      1 O1           7.9000     2.2920    10.9670 os         1 UNL      -0.305400
      2 O2           7.2950    -3.3450     8.5260 os         1 UNL      -0.305400
      3 N3           3.9650     6.9470    13.0770 nh         1 UNL      -0.472350
      4 N4           5.9330    -6.5220     3.0800 nh         1 UNL      -0.472350
      5 N5           2.8350     5.0080    13.7320 nh         1 UNL      -0.456450
      6 N6           3.9120    -5.4450     3.5450 nh         1 UNL      -0.456450
      7 C7           6.0740    -0.0940     9.9580 c3         1 UNL      -0.079900
      8 C8           5.7540    -1.2240     8.9780 c3         1 UNL      -0.079900
      9 C9           7.5800     0.0630    10.1520 c3         1 UNL      -0.100400
     10 C10          5.3900    -2.5120     9.7130 c3         1 UNL      -0.100400
     11 C11          7.9030     0.9270    11.3630 c3         1 UNL       0.122400
     12 C12          6.5490    -3.4990     9.7250 c3         1 UNL       0.122400
     13 C13          6.9180     3.0880    11.4990 ca         1 UNL       0.209100
     14 C14          6.7730    -3.9180     7.3950 ca         1 UNL       0.209100
     15 C15          7.1740     3.8370    12.6480 ca         1 UNL      -0.184500
     16 C16          5.7470    -3.2790     6.7000 ca         1 UNL      -0.184500
     17 C17          5.6650     3.1500    10.8910 ca         1 UNL      -0.184500
     18 C18          7.2710    -5.1380     6.9380 ca         1 UNL      -0.184500
     19 C19          4.9230     4.7100    12.5790 ca         1 UNL      -0.311400
     20 C20          5.7150    -5.0810     5.0900 ca         1 UNL      -0.311400
     21 C21          6.1760     4.6480    13.1880 ca         1 UNL      -0.037750
     22 C22          5.2180    -3.8600     5.5480 ca         1 UNL      -0.037750
     23 C23          4.6670     3.9610    11.4310 ca         1 UNL      -0.037750
     24 C24          6.7420    -5.7190     5.7860 ca         1 UNL      -0.037750
     25 C25          3.8830     5.5570    13.1420 ce         1 UNL       0.529400
     26 C26          5.1640    -5.6870     3.8890 ce         1 UNL       0.529400
     27 H1           4.6560     7.4230    13.5920 hn         1 UNL       0.325950
     28 H2           3.3320     7.4520    12.5170 hn         1 UNL       0.325950
     29 H3           6.9100    -6.4090     3.0440 hn         1 UNL       0.325950
     30 H4           5.4980    -7.2240     2.5440 hn         1 UNL       0.325950
     31 H5           2.1300     5.5800    14.1130 hn         1 UNL       0.325950
     32 H6           2.7600     4.0280    13.7900 hn         1 UNL       0.325950
     33 H7           3.5370    -5.8540     2.7320 hn         1 UNL       0.325950
     34 H8           3.3530    -4.8550     4.1010 hn         1 UNL       0.325950
     35 H9           5.6220    -0.3150    10.9030 hc         1 UNL       0.051200
     36 H10          5.6880     0.8200     9.5580 hc         1 UNL       0.051200
     37 H11          6.6100    -1.4040     8.3630 hc         1 UNL       0.051200
     38 H12          4.9150    -0.9270     8.3830 hc         1 UNL       0.051200
     39 H13          7.9970     0.5200     9.2790 hc         1 UNL       0.063950
     40 H14          8.0000    -0.9080    10.3130 hc         1 UNL       0.063950
     41 H15          4.5530    -2.9660     9.2250 hc         1 UNL       0.063950
     42 H16          5.1530    -2.2620    10.7270 hc         1 UNL       0.063950
     43 H17          7.1660     0.7710    12.1230 h1         1 UNL       0.063200
     44 H18          8.8650     0.6640    11.7510 h1         1 UNL       0.063200
     45 H19          7.1780    -3.3040    10.5680 h1         1 UNL       0.063200
     46 H20          6.1730    -4.4990     9.7930 h1         1 UNL       0.063200
     47 H21          8.1020     3.7910    13.0980 ha         1 UNL       0.174000
     48 H22          5.3790    -2.3760     7.0380 ha         1 UNL       0.174000
     49 H23          5.4750     2.5960    10.0410 ha         1 UNL       0.174000
     50 H24          8.0310    -5.6100     7.4520 ha         1 UNL       0.174000
     51 H25          6.3660     5.2020    14.0370 ha         1 UNL       0.150500
     52 H26          4.4580    -3.3880     5.0330 ha         1 UNL       0.150500
     53 H27          3.7400     4.0070    10.9810 ha         1 UNL       0.150500
     54 H28          7.1100    -6.6220     5.4480 ha         1 UNL       0.150500
@<TRIPOS>BOND
     1     1    11 1   
     2     1    13 1   
     3     2    12 1   
     4     2    14 1   
     5     3    25 2   
     6     4    26 2   
     7     5    25 1   
     8     6    26 1   
     9     7     8 1   
    10     7     9 1   
    11     8    10 1   
    12     9    11 1   
    13    10    12 1   
    14    13    15 ar  
    15    13    17 ar  
    16    14    16 ar  
    17    14    18 ar  
    18    15    21 ar  
    19    16    22 ar  
    20    17    23 ar  
    21    18    24 ar  
    22    19    21 ar  
    23    19    23 ar  
    24    19    25 1   
    25    20    22 ar  
    26    20    24 ar  
    27    20    26 1   
    28     3    27 1   
    29     3    28 1   
    30     4    29 1   
    31     4    30 1   
    32     5    31 1   
    33     5    32 1   
    34     6    33 1   
    35     6    34 1   
    36     7    35 1   
    37     7    36 1   
    38     8    37 1   
    39     8    38 1   
    40     9    39 1   
    41     9    40 1   
    42    10    41 1   
    43    10    42 1   
    44    11    43 1   
    45    11    44 1   
    46    12    45 1   
    47    12    46 1   
    48    15    47 1   
    49    16    48 1   
    50    17    49 1   
    51    18    50 1   
    52    21    51 1   
    53    22    52 1   
    54    23    53 1   
    55    24    54 1   
@<TRIPOS>SUBSTRUCTURE
     1 UNL         1 TEMP              0 ****  ****    0 ROOT
