@<TRIPOS>MOLECULE
65130
   54    55     1     0     0
SMALL
bcc


@<TRIPOS>ATOM
      1 O1           5.9380     4.0000    11.7260 os         1 UNL      -0.305900
      2 O2           6.6000    -3.1680     8.5410 os         1 UNL      -0.305900
      3 N3           2.6480     6.5820    16.6370 nh         1 UNL      -0.473100
      4 N4           5.9360    -6.4060     3.0010 nh         1 UNL      -0.473100
      5 N5           1.2140     4.8830    15.9180 nh         1 UNL      -0.457200
      6 N6           6.5640    -8.0930     4.4920 nh         1 UNL      -0.457200
      7 C7           7.0290     1.3310    10.3740 c3         1 UNL      -0.077400
      8 C8           7.2530     0.3210     9.2470 c3         1 UNL      -0.077400
      9 C9           6.5560     2.6770     9.8290 c3         1 UNL      -0.088400
     10 C10          6.4970    -0.9800     9.5080 c3         1 UNL      -0.088400
     11 C11          5.4050     3.2420    10.6490 c3         1 UNL       0.125400
     12 C12          6.3410    -1.8040     8.2380 c3         1 UNL       0.125400
     13 C13          5.0620     4.3740    12.7130 ca         1 UNL       0.210100
     14 C14          6.5270    -4.0580     7.5010 ca         1 UNL       0.210100
     15 C15          4.4480     3.4030    13.5040 ca         1 UNL      -0.184500
     16 C16          7.4750    -5.0750     7.3850 ca         1 UNL      -0.184500
     17 C17          4.7870     5.7240    12.9270 ca         1 UNL      -0.184500
     18 C18          5.5040    -3.9470     6.5590 ca         1 UNL      -0.184500
     19 C19          3.2830     5.1330    14.7230 ca         1 UNL      -0.311900
     20 C20          6.3760    -5.8710     5.3860 ca         1 UNL      -0.311900
     21 C21          3.5590     3.7820    14.5090 ca         1 UNL      -0.037500
     22 C22          7.3990    -5.9810     6.3280 ca         1 UNL      -0.037500
     23 C23          3.8980     6.1040    13.9320 ca         1 UNL      -0.037500
     24 C24          5.4280    -4.8530     5.5020 ca         1 UNL      -0.037500
     25 C25          2.3570     5.5290    15.7710 ce         1 UNL       0.529400
     26 C26          6.2960    -6.8160     4.2840 ce         1 UNL       0.529400
     27 H1           3.5800     6.7570    16.9020 hn         1 UNL       0.325950
     28 H2           1.9230     7.1500    16.9830 hn         1 UNL       0.325950
     29 H3           5.4680    -7.0280     2.3990 hn         1 UNL       0.325950
     30 H4           6.1510    -5.4940     2.6980 hn         1 UNL       0.325950
     31 H5           0.5850     5.1490    16.6270 hn         1 UNL       0.325950
     32 H6           0.9910     4.1340    15.3180 hn         1 UNL       0.325950
     33 H7           6.5110    -8.7350     3.7470 hn         1 UNL       0.325950
     34 H8           6.8170    -8.4030     5.3910 hn         1 UNL       0.325950
     35 H9           7.9490     1.4730    10.9020 hc         1 UNL       0.049700
     36 H10          6.2730     0.9470    11.0260 hc         1 UNL       0.049700
     37 H11          8.2980     0.1080     9.1720 hc         1 UNL       0.049700
     38 H12          6.8870     0.7460     8.3360 hc         1 UNL       0.049700
     39 H13          6.2310     2.5470     8.8180 hc         1 UNL       0.066700
     40 H14          7.3740     3.3650     9.8820 hc         1 UNL       0.066700
     41 H15          5.5260    -0.7460     9.8920 hc         1 UNL       0.066700
     42 H16          7.0590    -1.5560    10.2140 hc         1 UNL       0.066700
     43 H17          4.7990     3.8710    10.0320 h1         1 UNL       0.053200
     44 H18          4.8050     2.4430    11.0300 h1         1 UNL       0.053200
     45 H19          5.3440    -1.7020     7.8640 h1         1 UNL       0.053200
     46 H20          7.0300    -1.4600     7.4960 h1         1 UNL       0.053200
     47 H21          4.6510     2.4030    13.3450 ha         1 UNL       0.174500
     48 H22          8.2320    -5.1570     8.0820 ha         1 UNL       0.174500
     49 H23          5.2420     6.4420    12.3420 ha         1 UNL       0.174500
     50 H24          4.8030    -3.1950     6.6450 ha         1 UNL       0.174500
     51 H25          3.1040     3.0640    15.0940 ha         1 UNL       0.150500
     52 H26          8.1000    -6.7340     6.2420 ha         1 UNL       0.150500
     53 H27          3.6950     7.1030    14.0900 ha         1 UNL       0.150500
     54 H28          4.6710    -4.7720     4.8050 ha         1 UNL       0.150500
@<TRIPOS>BOND
     1     1    11 1   
     2     1    13 1   
     3     2    12 1   
     4     2    14 1   
     5     3    25 2   
     6     4    26 2   
     7     5    25 1   
     8     6    26 1   
     9     7     8 1   
    10     7     9 1   
    11     8    10 1   
    12     9    11 1   
    13    10    12 1   
    14    13    15 ar  
    15    13    17 ar  
    16    14    16 ar  
    17    14    18 ar  
    18    15    21 ar  
    19    16    22 ar  
    20    17    23 ar  
    21    18    24 ar  
    22    19    21 ar  
    23    19    23 ar  
    24    19    25 1   
    25    20    22 ar  
    26    20    24 ar  
    27    20    26 1   
    28     3    27 1   
    29     3    28 1   
    30     4    29 1   
    31     4    30 1   
    32     5    31 1   
    33     5    32 1   
    34     6    33 1   
    35     6    34 1   
    36     7    35 1   
    37     7    36 1   
    38     8    37 1   
    39     8    38 1   
    40     9    39 1   
    41     9    40 1   
    42    10    41 1   
    43    10    42 1   
    44    11    43 1   
    45    11    44 1   
    46    12    45 1   
    47    12    46 1   
    48    15    47 1   
    49    16    48 1   
    50    17    49 1   
    51    18    50 1   
    52    21    51 1   
    53    22    52 1   
    54    23    53 1   
    55    24    54 1   
@<TRIPOS>SUBSTRUCTURE
     1 UNL         1 TEMP              0 ****  ****    0 ROOT
