@<TRIPOS>MOLECULE
9831652
   85    89     1     0     0
SMALL
bcc


@<TRIPOS>ATOM
      1 Cl1          4.0920    -2.1480     9.4980 cl         1 UNL      -0.046400
      2 Cl2          8.2330     1.2550    10.3870 cl         1 UNL      -0.062400
      3 S3           3.2700    -1.9000    12.5960 sy         1 UNL       1.511200
      4 O4           3.0580    -1.3940    13.9400 o          1 UNL      -0.639800
      5 O5           2.2000    -1.8560    11.6170 o          1 UNL      -0.639800
      6 O6           5.3790    -4.0020    15.7550 o          1 UNL      -0.628100
      7 O7           7.0490    -1.8450     8.4070 os         1 UNL      -0.325900
      8 O8           9.6960    -8.9180    14.9530 o          1 UNL      -0.599300
      9 N9           3.8980    -3.4780    12.6770 n3         1 UNL      -0.818500
     10 N10          6.1650    -4.2320    13.5760 n          1 UNL      -0.549900
     11 N11          8.9650    -7.6700    13.1390 n          1 UNL      -0.543900
     12 N12          7.5370    -4.5410     8.1190 nb         1 UNL      -0.662000
     13 N13         11.9090   -12.4170     8.8100 nh         1 UNL      -0.806100
     14 N14         12.6130   -13.6210    10.6860 nh         1 UNL      -0.806100
     15 C15          3.8100    -4.2000    13.9760 c3         1 UNL       0.166500
     16 C16          3.3850    -5.6230    13.6310 c3         1 UNL      -0.079400
     17 C17          3.8060    -5.7910    12.1800 c3         1 UNL      -0.092400
     18 C18          3.5210    -4.4210    11.5880 c3         1 UNL       0.213800
     19 C19          5.1860    -4.1390    14.5500 c          1 UNL       0.632100
     20 C20          4.6550    -1.0380    11.9160 ca         1 UNL      -0.366500
     21 C21          7.5790    -4.1760    13.8690 c3         1 UNL       0.087000
     22 C22          5.0140    -1.1460    10.5720 ca         1 UNL       0.159400
     23 C23          5.3990    -0.2280    12.7740 ca         1 UNL      -0.003000
     24 C24          8.3670    -5.2780    13.1640 c3         1 UNL      -0.115400
     25 C25          6.1170    -0.4430    10.0870 ca         1 UNL      -0.114300
     26 C26          6.5020     0.4740    12.2880 ca         1 UNL      -0.154000
     27 C27          6.8610     0.3660    10.9450 ca         1 UNL       0.096400
     28 C28          8.3430    -6.6180    13.8950 c3         1 UNL       0.066000
     29 C29          6.5090    -0.5540     8.6440 c3         1 UNL       0.170700
     30 C30          6.5670    -2.5290     7.3200 ca         1 UNL       0.061800
     31 C31          9.6010    -8.7510    13.7400 c2         1 UNL       0.655300
     32 C32          6.8190    -3.8910     7.1840 ca         1 UNL       0.396600
     33 C33          6.3020    -4.5510     6.0490 ca         1 UNL      -0.132300
     34 C34          5.8260    -1.8220     6.3690 ca         1 UNL      -0.168000
     35 C35         10.2180    -9.7410    12.8200 cc         1 UNL      -0.049000
     36 C36          6.5560    -5.9230     5.9110 ca         1 UNL      -0.021300
     37 C37          5.5570    -3.8410     5.0930 ca         1 UNL      -0.125000
     38 C38          5.3200    -2.4790     5.2540 ca         1 UNL      -0.104000
     39 C39          7.7600    -5.8650     7.9480 ca         1 UNL       0.422600
     40 C40          7.2960    -6.5960     6.8730 ca         1 UNL      -0.251300
     41 C41          6.0520    -6.7140     4.7450 c3         1 UNL      -0.065800
     42 C42          9.4240   -10.4340    11.9070 cc         1 UNL      -0.087500
     43 C43         11.5920    -9.9770    12.8700 cc         1 UNL      -0.087500
     44 C44          8.5600    -6.5470     9.0070 c3         1 UNL      -0.152400
     45 C45         10.0040   -11.3640    11.0440 cd         1 UNL      -0.090000
     46 C46         12.1720   -10.9070    12.0070 cd         1 UNL      -0.090000
     47 C47         11.3780   -11.6000    11.0940 cd         1 UNL      -0.169000
     48 C48         11.9820   -12.5690    10.1940 c2         1 UNL       0.508000
     49 H1           5.8850    -4.3410    12.6390 hn         1 UNL       0.330500
     50 H2           8.9410    -7.6240    12.1560 hn         1 UNL       0.307500
     51 H3          11.5390   -13.1410     8.2540 hn         1 UNL       0.482050
     52 H4          12.2280   -11.5870     8.3880 hn         1 UNL       0.482050
     53 H5          13.0220   -14.2780    10.0780 hn         1 UNL       0.482050
     54 H6          12.6730   -13.7480    11.6600 hn         1 UNL       0.482050
     55 H7           3.1150    -3.7970    14.6820 h1         1 UNL       0.108700
     56 H8           2.3260    -5.7390    13.7350 hc         1 UNL       0.060700
     57 H9           3.8280    -6.3530    14.2750 hc         1 UNL       0.060700
     58 H10          3.2270    -6.5490    11.6960 hc         1 UNL       0.055700
     59 H11          4.8250    -6.0990    12.0670 hc         1 UNL       0.055700
     60 H12          4.1160    -4.2520    10.7150 h1         1 UNL       0.061200
     61 H13          2.5040    -4.3080    11.2780 h1         1 UNL       0.061200
     62 H14          7.7150    -4.2800    14.9250 h1         1 UNL       0.075200
     63 H15          7.9470    -3.2360    13.5140 h1         1 UNL       0.075200
     64 H16          5.1330    -0.1480    13.7680 ha         1 UNL       0.183000
     65 H17          9.3860    -4.9600    13.0760 hc         1 UNL       0.049200
     66 H18          7.9030    -5.4330    12.2120 hc         1 UNL       0.049200
     67 H19          7.0520     1.0730    12.9230 ha         1 UNL       0.165000
     68 H20          8.8610    -6.5110    14.8250 h1         1 UNL       0.090200
     69 H21          7.3180    -6.8880    14.0430 h1         1 UNL       0.090200
     70 H22          5.6470    -0.4070     8.0260 h1         1 UNL       0.064200
     71 H23          7.2410     0.1910     8.4110 h1         1 UNL       0.064200
     72 H24          5.6540    -0.8130     6.4950 ha         1 UNL       0.147000
     73 H25          5.1830    -4.3320     4.2660 ha         1 UNL       0.141000
     74 H26          4.7730    -1.9600     4.5500 ha         1 UNL       0.143000
     75 H27          7.4920    -7.6050     6.7880 ha         1 UNL       0.145000
     76 H28          5.5020    -6.0710     4.0890 hc         1 UNL       0.054700
     77 H29          5.4130    -7.4970     5.0950 hc         1 UNL       0.054700
     78 H30          6.8800    -7.1380     4.2170 hc         1 UNL       0.054700
     79 H31          8.4080   -10.2600    11.8700 ha         1 UNL       0.181000
     80 H32         12.1800    -9.4640    13.5460 ha         1 UNL       0.181000
     81 H33          8.8350    -5.8370     9.7590 hc         1 UNL       0.052367
     82 H34          9.4430    -6.9660     8.5720 hc         1 UNL       0.052367
     83 H35          7.9750    -7.3260     9.4500 hc         1 UNL       0.052367
     84 H36          9.4160   -11.8770    10.3680 ha         1 UNL       0.151000
     85 H37         13.1880   -11.0810    12.0440 ha         1 UNL       0.151000
@<TRIPOS>BOND
     1     1    22 1   
     2     2    27 1   
     3     3     4 2   
     4     3     5 2   
     5     3     9 1   
     6     3    20 1   
     7     6    19 2   
     8     7    29 1   
     9     7    30 1   
    10     8    31 1   
    11     9    15 1   
    12     9    18 1   
    13    10    19 1   
    14    10    21 1   
    15    11    28 1   
    16    11    31 1   
    17    12    32 ar  
    18    12    39 ar  
    19    13    48 1   
    20    14    48 1   
    21    15    16 1   
    22    15    19 1   
    23    16    17 1   
    24    17    18 1   
    25    20    22 ar  
    26    20    23 ar  
    27    21    24 1   
    28    22    25 ar  
    29    23    26 ar  
    30    24    28 1   
    31    25    27 ar  
    32    25    29 1   
    33    26    27 ar  
    34    30    32 ar  
    35    30    34 ar  
    36    31    35 2   
    37    32    33 ar  
    38    33    36 ar  
    39    33    37 ar  
    40    34    38 ar  
    41    35    42 1   
    42    35    43 1   
    43    36    40 ar  
    44    36    41 1   
    45    37    38 ar  
    46    39    40 ar  
    47    39    44 1   
    48    42    45 2   
    49    43    46 2   
    50    45    47 1   
    51    46    47 1   
    52    47    48 2   
    53    10    49 1   
    54    11    50 1   
    55    13    51 1   
    56    13    52 1   
    57    14    53 1   
    58    14    54 1   
    59    15    55 1   
    60    16    56 1   
    61    16    57 1   
    62    17    58 1   
    63    17    59 1   
    64    18    60 1   
    65    18    61 1   
    66    21    62 1   
    67    21    63 1   
    68    23    64 1   
    69    24    65 1   
    70    24    66 1   
    71    26    67 1   
    72    28    68 1   
    73    28    69 1   
    74    29    70 1   
    75    29    71 1   
    76    34    72 1   
    77    37    73 1   
    78    38    74 1   
    79    40    75 1   
    80    41    76 1   
    81    41    77 1   
    82    41    78 1   
    83    42    79 1   
    84    43    80 1   
    85    44    81 1   
    86    44    82 1   
    87    44    83 1   
    88    45    84 1   
    89    46    85 1   
@<TRIPOS>SUBSTRUCTURE
     1 UNL         1 TEMP              0 ****  ****    0 ROOT
