@<TRIPOS>MOLECULE
9831652
   85    89     1     0     0
SMALL
bcc


@<TRIPOS>ATOM
      1 Cl1          8.9660    -1.9880    12.0000 cl         1 UNL      -0.059400
      2 Cl2          4.3460    -3.5680     9.6170 cl         1 UNL      -0.037400
      3 S3           8.7020     0.8640    10.5390 sy         1 UNL       1.512200
      4 O4           9.9610     0.2360    10.8950 o          1 UNL      -0.642300
      5 O5           8.6180     1.7420     9.3870 o          1 UNL      -0.642300
      6 O6           6.8910     3.7710    10.7980 o          1 UNL      -0.702100
      7 O7           7.0580    -4.9670    10.4450 os         1 UNL      -0.313900
      8 O8           4.0130     4.4820    16.3760 o          1 UNL      -0.618300
      9 N9           8.0560     1.6530    11.9000 n3         1 UNL      -0.819500
     10 N10          5.1710     3.6510    12.3630 n          1 UNL      -0.539900
     11 N11          2.6020     4.7340    14.5530 n          1 UNL      -0.545900
     12 N12          5.6810    -7.2150    11.2450 nb         1 UNL      -0.674000
     13 N13         -0.3890    -1.4630    16.2000 nh         1 UNL      -0.808100
     14 N14          0.5650    -1.2850    18.3260 nh         1 UNL      -0.808100
     15 C15          6.5750     1.7490    12.0150 c3         1 UNL       0.187500
     16 C16          6.2520     1.4420    13.4730 c3         1 UNL      -0.074400
     17 C17          7.5440     1.7540    14.2100 c3         1 UNL      -0.090400
     18 C18          8.6080     1.2830    13.2320 c3         1 UNL       0.213800
     19 C19          6.2440     3.1550    11.6420 c          1 UNL       0.653100
     20 C20          7.5100    -0.4230    10.3200 ca         1 UNL      -0.393500
     21 C21          4.6670     4.9960    12.2050 c3         1 UNL       0.087000
     22 C22          7.6240    -1.6610    10.9520 ca         1 UNL       0.147400
     23 C23          6.4270    -0.1650     9.4800 ca         1 UNL      -0.013000
     24 C24          4.6000     5.7550    13.5280 c3         1 UNL      -0.124400
     25 C25          6.6540    -2.6420    10.7430 ca         1 UNL      -0.132300
     26 C26          5.4570    -1.1460     9.2710 ca         1 UNL      -0.159000
     27 C27          5.5710    -2.3840     9.9030 ca         1 UNL       0.103400
     28 C28          3.1800     5.9520    14.0550 c3         1 UNL       0.082000
     29 C29          6.7690    -3.9750    11.4190 c3         1 UNL       0.173700
     30 C30          7.7320    -6.0810    10.8760 ca         1 UNL       0.036800
     31 C31          3.0740     4.0890    15.6900 c2         1 UNL       0.657300
     32 C32          7.0270    -7.2120    11.2780 ca         1 UNL       0.391600
     33 C33          7.7640    -8.3330    11.7130 ca         1 UNL      -0.139300
     34 C34          9.1280    -6.0420    10.8960 ca         1 UNL      -0.122000
     35 C35          2.3850     2.8250    16.0590 cc         1 UNL      -0.045000
     36 C36          7.0540    -9.4720    12.1180 ca         1 UNL      -0.018300
     37 C37          9.1680    -8.2950    11.7340 ca         1 UNL      -0.112000
     38 C38          9.8480    -7.1500    11.3260 ca         1 UNL      -0.117000
     39 C39          5.0340    -8.3340    11.6450 ca         1 UNL       0.434600
     40 C40          5.6670    -9.4780    12.0860 ca         1 UNL      -0.254300
     41 C41          7.7430   -10.7120    12.5950 c3         1 UNL      -0.065800
     42 C42          1.4970     2.8020    17.1350 cc         1 UNL      -0.086000
     43 C43          2.6260     1.6610    15.3290 cc         1 UNL      -0.086000
     44 C44          3.5430    -8.2950    11.5940 c3         1 UNL      -0.153400
     45 C45          0.8510     1.6160    17.4800 cd         1 UNL      -0.095000
     46 C46          1.9800     0.4740    15.6750 cd         1 UNL      -0.095000
     47 C47          1.0930     0.4520    16.7510 cd         1 UNL      -0.169000
     48 C48          0.4190    -0.7850    17.1110 c2         1 UNL       0.509000
     49 H1           4.7310     3.0580    13.0140 hn         1 UNL       0.353500
     50 H2           1.8410     4.3400    14.0680 hn         1 UNL       0.341500
     51 H3          -0.4230    -1.1720    15.2600 hn         1 UNL       0.481550
     52 H4          -0.9260    -2.2340    16.4950 hn         1 UNL       0.481550
     53 H5           0.1090    -2.1220    18.5710 hn         1 UNL       0.481550
     54 H6           1.1280    -0.8190    18.9850 hn         1 UNL       0.481550
     55 H7           6.0190     1.0790    11.3930 h1         1 UNL       0.079700
     56 H8           5.9840     0.4130    13.5950 hc         1 UNL       0.060200
     57 H9           5.4220     2.0090    13.8400 hc         1 UNL       0.060200
     58 H10          7.6020     1.2150    15.1320 hc         1 UNL       0.059200
     59 H11          7.6410     2.7850    14.4790 hc         1 UNL       0.059200
     60 H12          9.5370     1.7810    13.4120 h1         1 UNL       0.065700
     61 H13          8.8130     0.2360    13.3180 h1         1 UNL       0.065700
     62 H14          3.6830     4.9460    11.7880 h1         1 UNL       0.062200
     63 H15          5.3410     5.5220    11.5630 h1         1 UNL       0.062200
     64 H16          6.3430     0.7510     9.0120 ha         1 UNL       0.178000
     65 H17          5.0440     6.7180    13.3870 hc         1 UNL       0.065200
     66 H18          5.1220     5.1660    14.2530 hc         1 UNL       0.065200
     67 H19          4.6560    -0.9560     8.6490 ha         1 UNL       0.166000
     68 H20          3.2050     6.6690    14.8490 h1         1 UNL       0.070200
     69 H21          2.5750     6.2890    13.2390 h1         1 UNL       0.070200
     70 H22          7.5570    -3.9430    12.1420 h1         1 UNL       0.081200
     71 H23          5.8490    -4.2100    11.9120 h1         1 UNL       0.081200
     72 H24          9.6250    -5.1900    10.5920 ha         1 UNL       0.150000
     73 H25          9.6990    -9.1200    12.0530 ha         1 UNL       0.141000
     74 H26         10.8790    -7.1250    11.3420 ha         1 UNL       0.144000
     75 H27          5.1290   -10.3080    12.3810 ha         1 UNL       0.146000
     76 H28          8.8020   -10.5650    12.5670 hc         1 UNL       0.054367
     77 H29          7.4800   -11.5330    11.9610 hc         1 UNL       0.054367
     78 H30          7.4390   -10.9250    13.5990 hc         1 UNL       0.054367
     79 H31          1.3190     3.6640    17.6740 ha         1 UNL       0.195000
     80 H32          3.2830     1.6780    14.5330 ha         1 UNL       0.195000
     81 H33          3.2240    -7.3400    11.2320 hc         1 UNL       0.054700
     82 H34          3.1480    -8.4540    12.5760 hc         1 UNL       0.054700
     83 H35          3.1890    -9.0620    10.9380 hc         1 UNL       0.054700
     84 H36          0.1950     1.5990    18.2770 ha         1 UNL       0.148500
     85 H37          2.1590    -0.3870    15.1350 ha         1 UNL       0.148500
@<TRIPOS>BOND
     1     1    22 1   
     2     2    27 1   
     3     3     4 2   
     4     3     5 2   
     5     3     9 1   
     6     3    20 1   
     7     6    19 2   
     8     7    29 1   
     9     7    30 1   
    10     8    31 1   
    11     9    15 1   
    12     9    18 1   
    13    10    19 1   
    14    10    21 1   
    15    11    28 1   
    16    11    31 1   
    17    12    32 ar  
    18    12    39 ar  
    19    13    48 1   
    20    14    48 1   
    21    15    16 1   
    22    15    19 1   
    23    16    17 1   
    24    17    18 1   
    25    20    22 ar  
    26    20    23 ar  
    27    21    24 1   
    28    22    25 ar  
    29    23    26 ar  
    30    24    28 1   
    31    25    27 ar  
    32    25    29 1   
    33    26    27 ar  
    34    30    32 ar  
    35    30    34 ar  
    36    31    35 2   
    37    32    33 ar  
    38    33    36 ar  
    39    33    37 ar  
    40    34    38 ar  
    41    35    42 1   
    42    35    43 1   
    43    36    40 ar  
    44    36    41 1   
    45    37    38 ar  
    46    39    40 ar  
    47    39    44 1   
    48    42    45 2   
    49    43    46 2   
    50    45    47 1   
    51    46    47 1   
    52    47    48 2   
    53    10    49 1   
    54    11    50 1   
    55    13    51 1   
    56    13    52 1   
    57    14    53 1   
    58    14    54 1   
    59    15    55 1   
    60    16    56 1   
    61    16    57 1   
    62    17    58 1   
    63    17    59 1   
    64    18    60 1   
    65    18    61 1   
    66    21    62 1   
    67    21    63 1   
    68    23    64 1   
    69    24    65 1   
    70    24    66 1   
    71    26    67 1   
    72    28    68 1   
    73    28    69 1   
    74    29    70 1   
    75    29    71 1   
    76    34    72 1   
    77    37    73 1   
    78    38    74 1   
    79    40    75 1   
    80    41    76 1   
    81    41    77 1   
    82    41    78 1   
    83    42    79 1   
    84    43    80 1   
    85    44    81 1   
    86    44    82 1   
    87    44    83 1   
    88    45    84 1   
    89    46    85 1   
@<TRIPOS>SUBSTRUCTURE
     1 UNL         1 TEMP              0 ****  ****    0 ROOT
