@<TRIPOS>MOLECULE
9895193
   91    93     1     0     0
SMALL
bcc


@<TRIPOS>ATOM
      1 S1           8.0940    -4.3070    13.2830 sy         1 UNL       1.544200
      2 O2           6.9310    -4.0550    14.1120 o          1 UNL      -0.704300
      3 O3           8.6270    -3.2580    12.4350 o          1 UNL      -0.704300
      4 O4           7.2650    -7.9040    10.5560 o          1 UNL      -0.607100
      5 O5           0.8760    -8.2000    12.9960 os         1 UNL      -0.439900
      6 O6           0.4650    -6.1120    12.1600 o          1 UNL      -0.577000
      7 N7           5.1540    -7.0240    10.9580 n          1 UNL      -0.460800
      8 N8           7.8220    -5.6990    12.3410 n3         1 UNL      -0.915100
      9 N9           2.6400    -6.9220    12.2510 n          1 UNL      -0.409800
     10 N10          6.0870    -1.4320     6.1570 nh         1 UNL      -0.468100
     11 N11          4.2060    -2.4020     7.1470 nh         1 UNL      -0.452200
     12 C12          9.4110    -4.8360    14.3370 ca         1 UNL      -0.417500
     13 C13          7.1590    -5.5850    11.0290 c3         1 UNL       0.187500
     14 C14          9.2040    -4.9420    15.7120 ca         1 UNL       0.060200
     15 C15         10.6570    -5.1470    13.7930 ca         1 UNL       0.060200
     16 C16          4.5350    -8.2650    11.4300 c3         1 UNL       0.050000
     17 C17          4.2000    -5.9650    10.6010 c3         1 UNL       0.050000
     18 C18          6.5390    -6.9440    10.8240 c          1 UNL       0.637100
     19 C19          7.8830    -4.6190    16.3300 c3         1 UNL      -0.046400
     20 C20         10.9170    -5.0440    12.3250 c3         1 UNL      -0.046400
     21 C21          3.5860    -7.9910    12.5940 c3         1 UNL       0.059500
     22 C22          3.2490    -5.6840    11.7620 c3         1 UNL       0.059500
     23 C23         11.4900    -5.6690    16.0000 ca         1 UNL       0.028700
     24 C24          8.1690    -5.2910     9.9300 c3         1 UNL      -0.065100
     25 C25         10.2440    -5.3580    16.5440 ca         1 UNL      -0.162000
     26 C26         11.6970    -5.5640    14.6240 ca         1 UNL      -0.162000
     27 C27         12.6020    -6.1140    16.8890 c3         1 UNL      -0.040400
     28 C28          7.2090    -5.8560    16.9520 c3         1 UNL      -0.091350
     29 C29          7.9840    -3.4940    17.3760 c3         1 UNL      -0.091350
     30 C30         12.1380    -4.1630    12.0060 c3         1 UNL      -0.091350
     31 C31         11.0760    -6.4230    11.6600 c3         1 UNL      -0.091350
     32 C32          7.5100    -5.0950     8.5870 ca         1 UNL      -0.059300
     33 C33         13.8820    -5.2780    16.6940 c3         1 UNL      -0.091100
     34 C34         12.9260    -7.6110    16.7240 c3         1 UNL      -0.091100
     35 C35          1.2600    -7.0060    12.4460 c          1 UNL       0.721100
     36 C36          6.8110    -3.9180     8.3170 ca         1 UNL      -0.073000
     37 C37          7.6000    -6.0910     7.6140 ca         1 UNL      -0.075000
     38 C38          6.2030    -3.7370     7.0750 ca         1 UNL      -0.238900
     39 C39          6.9920    -5.9090     6.3720 ca         1 UNL      -0.117000
     40 C40          6.2930    -4.7320     6.1030 ca         1 UNL      -0.092000
     41 C41         -0.5340    -8.4040    13.1420 c3         1 UNL       0.149400
     42 C42          5.4740    -2.5100     6.7930 ce         1 UNL       0.509400
     43 C43         -1.0520    -9.1540    11.9330 c3         1 UNL      -0.129100
     44 H1           7.2520    -6.3290    12.9050 hn         1 UNL       0.467800
     45 H2           6.8640    -1.5840     5.5710 hn         1 UNL       0.332200
     46 H3           5.7440    -0.5200     6.2930 hn         1 UNL       0.332200
     47 H4           3.7110    -1.5730     6.9570 hn         1 UNL       0.332200
     48 H5           3.7560    -3.1510     7.6010 hn         1 UNL       0.332200
     49 H6           6.4450    -4.7880    10.9980 h1         1 UNL       0.077700
     50 H7           5.3010    -8.9380    11.7540 h1         1 UNL       0.071450
     51 H8           3.9750    -8.6960    10.6260 h1         1 UNL       0.071450
     52 H9           3.6320    -6.2760     9.7490 h1         1 UNL       0.071450
     53 H10          4.7450    -5.0720    10.3780 h1         1 UNL       0.071450
     54 H11          7.2670    -4.2730    15.5260 hc         1 UNL       0.050700
     55 H12         10.0480    -4.5730    11.9140 hc         1 UNL       0.050700
     56 H13          3.0410    -8.8830    12.8200 h1         1 UNL       0.082950
     57 H14          4.1620    -7.6830    13.4410 h1         1 UNL       0.082950
     58 H15          3.7960    -5.2240    12.5580 h1         1 UNL       0.082950
     59 H16          2.4720    -5.0350    11.4160 h1         1 UNL       0.082950
     60 H17          8.8520    -6.1120     9.8620 hc         1 UNL       0.091200
     61 H18          8.6740    -4.3830    10.1840 hc         1 UNL       0.091200
     62 H19         10.0910    -5.4360    17.5610 ha         1 UNL       0.154000
     63 H20         12.6190    -5.7940    14.2220 ha         1 UNL       0.154000
     64 H21         12.2480    -5.9560    17.8860 hc         1 UNL       0.064700
     65 H22          7.8090    -6.2190    17.7610 hc         1 UNL       0.046450
     66 H23          7.1110    -6.6200    16.2100 hc         1 UNL       0.046450
     67 H24          6.2410    -5.5880    17.3190 hc         1 UNL       0.046450
     68 H25          8.5960    -3.8190    18.1910 hc         1 UNL       0.046450
     69 H26          7.0050    -3.2550    17.7380 hc         1 UNL       0.046450
     70 H27          8.4200    -2.6270    16.9260 hc         1 UNL       0.046450
     71 H28         13.0200    -4.6160    12.4090 hc         1 UNL       0.046450
     72 H29         12.0030    -3.1950    12.4420 hc         1 UNL       0.046450
     73 H30         12.2400    -4.0660    10.9450 hc         1 UNL       0.046450
     74 H31         11.9410    -6.9130    12.0570 hc         1 UNL       0.046450
     75 H32         11.1910    -6.2980    10.6040 hc         1 UNL       0.046450
     76 H33         10.2080    -7.0170    11.8560 hc         1 UNL       0.046450
     77 H34         14.2530    -5.4220    15.7010 hc         1 UNL       0.044033
     78 H35         14.6220    -5.5890    17.4010 hc         1 UNL       0.044033
     79 H36         13.6580    -4.2430    16.8440 hc         1 UNL       0.044033
     80 H37         13.2830    -7.7910    15.7310 hc         1 UNL       0.044033
     81 H38         12.0410    -8.1880    16.8950 hc         1 UNL       0.044033
     82 H39         13.6780    -7.8930    17.4300 hc         1 UNL       0.044033
     83 H40          6.7440    -3.1810     9.0370 ha         1 UNL       0.153000
     84 H41          8.1160    -6.9610     7.8140 ha         1 UNL       0.163000
     85 H42          7.0580    -6.6460     5.6520 ha         1 UNL       0.164000
     86 H43          5.8440    -4.5980     5.1840 ha         1 UNL       0.147000
     87 H44         -1.0280    -7.4570    13.2150 h1         1 UNL       0.069700
     88 H45         -0.7280    -8.9700    14.0290 h1         1 UNL       0.069700
     89 H46         -0.8560    -8.5840    11.0490 hc         1 UNL       0.052033
     90 H47         -2.1060    -9.3070    12.0320 hc         1 UNL       0.052033
     91 H48         -0.5590   -10.1010    11.8630 hc         1 UNL       0.052033
@<TRIPOS>BOND
     1     1     2 2   
     2     1     3 2   
     3     1     8 1   
     4     1    12 1   
     5     4    18 2   
     6     5    35 1   
     7     5    41 1   
     8     6    35 2   
     9     7    16 1   
    10     7    17 1   
    11     7    18 1   
    12     8    13 1   
    13     9    21 1   
    14     9    22 1   
    15     9    35 1   
    16    10    42 2   
    17    11    42 1   
    18    12    14 ar  
    19    12    15 ar  
    20    13    18 1   
    21    13    24 1   
    22    14    19 1   
    23    14    25 ar  
    24    15    20 1   
    25    15    26 ar  
    26    16    21 1   
    27    17    22 1   
    28    19    28 1   
    29    19    29 1   
    30    20    30 1   
    31    20    31 1   
    32    23    25 ar  
    33    23    26 ar  
    34    23    27 1   
    35    24    32 1   
    36    27    33 1   
    37    27    34 1   
    38    32    36 ar  
    39    32    37 ar  
    40    36    38 ar  
    41    37    39 ar  
    42    38    40 ar  
    43    38    42 1   
    44    39    40 ar  
    45    41    43 1   
    46     8    44 1   
    47    10    45 1   
    48    10    46 1   
    49    11    47 1   
    50    11    48 1   
    51    13    49 1   
    52    16    50 1   
    53    16    51 1   
    54    17    52 1   
    55    17    53 1   
    56    19    54 1   
    57    20    55 1   
    58    21    56 1   
    59    21    57 1   
    60    22    58 1   
    61    22    59 1   
    62    24    60 1   
    63    24    61 1   
    64    25    62 1   
    65    26    63 1   
    66    27    64 1   
    67    28    65 1   
    68    28    66 1   
    69    28    67 1   
    70    29    68 1   
    71    29    69 1   
    72    29    70 1   
    73    30    71 1   
    74    30    72 1   
    75    30    73 1   
    76    31    74 1   
    77    31    75 1   
    78    31    76 1   
    79    33    77 1   
    80    33    78 1   
    81    33    79 1   
    82    34    80 1   
    83    34    81 1   
    84    34    82 1   
    85    36    83 1   
    86    37    84 1   
    87    39    85 1   
    88    40    86 1   
    89    41    87 1   
    90    41    88 1   
    91    43    89 1   
    92    43    90 1   
    93    43    91 1   
@<TRIPOS>SUBSTRUCTURE
     1 UNL         1 TEMP              0 ****  ****    0 ROOT
