@<TRIPOS>MOLECULE
9895193
   91    93     1     0     0
SMALL
bcc


@<TRIPOS>ATOM
      1 S1           9.1480    -5.2760    11.4970 sy         1 UNL       1.543200
      2 O2           9.9230    -4.0540    11.5980 o          1 UNL      -0.701300
      3 O3           9.5440    -6.3170    10.5690 o          1 UNL      -0.701300
      4 O4           4.8280    -4.5820    10.6570 o          1 UNL      -0.604100
      5 O5           4.8430     2.2570    10.3360 os         1 UNL      -0.440900
      6 O6           6.2330     2.1640     8.5230 o          1 UNL      -0.576000
      7 N7           5.5040    -2.5470     9.7640 n          1 UNL      -0.461800
      8 N8           7.5130    -4.8840    11.2280 n3         1 UNL      -0.919100
      9 N9           5.8550     0.2600     9.7990 n          1 UNL      -0.407800
     10 N10          5.4880    -6.5470     3.0010 nh         1 UNL      -0.469100
     11 N11          6.9490    -7.8850     4.2390 nh         1 UNL      -0.453200
     12 C12          9.0830    -6.0140    13.1020 ca         1 UNL      -0.415500
     13 C13          7.0670    -4.4540     9.8910 c3         1 UNL       0.183500
     14 C14          9.7530    -5.4200    14.1710 ca         1 UNL       0.059700
     15 C15          8.3620    -7.1920    13.2990 ca         1 UNL       0.059700
     16 C16          4.5510    -1.7100    10.4970 c3         1 UNL       0.050500
     17 C17          6.1410    -1.8840     8.6180 c3         1 UNL       0.050500
     18 C18          5.6980    -3.8750    10.1400 c          1 UNL       0.639100
     19 C19         10.5330    -4.1570    13.9990 c3         1 UNL      -0.044900
     20 C20          7.6340    -7.8590    12.1780 c3         1 UNL      -0.044900
     21 C21          5.2020    -0.4010    10.9350 c3         1 UNL       0.061500
     22 C22          6.7960    -0.5750     9.0500 c3         1 UNL       0.061500
     23 C23          8.9820    -7.1810    15.6340 ca         1 UNL       0.028700
     24 C24          6.9770    -5.6370     8.9390 c3         1 UNL      -0.057100
     25 C25          9.7020    -6.0030    15.4370 ca         1 UNL      -0.162000
     26 C26          8.3120    -7.7750    14.5650 ca         1 UNL      -0.162000
     27 C27          8.9280    -7.8050    16.9880 c3         1 UNL      -0.040400
     28 C28         10.0540    -3.0390    14.9430 c3         1 UNL      -0.091600
     29 C29         12.0470    -4.3750    14.1690 c3         1 UNL      -0.091600
     30 C30          8.1300    -9.2940    11.9280 c3         1 UNL      -0.091600
     31 C31          6.1090    -7.8600    12.3880 c3         1 UNL      -0.091600
     32 C32          6.6900    -5.2080     7.5200 ca         1 UNL      -0.079300
     33 C33          8.1020    -6.9740    17.9870 c3         1 UNL      -0.091100
     34 C34         10.3300    -8.0770    17.5670 c3         1 UNL      -0.091100
     35 C35          5.6870     1.6080     9.4750 c          1 UNL       0.720100
     36 C36          6.6150    -6.1610     6.5050 ca         1 UNL      -0.073000
     37 C37          6.4990    -3.8580     7.2260 ca         1 UNL      -0.067000
     38 C38          6.3490    -5.7640     5.1940 ca         1 UNL      -0.240900
     39 C39          6.2330    -3.4610     5.9150 ca         1 UNL      -0.119000
     40 C40          6.1580    -4.4140     4.9000 ca         1 UNL      -0.088000
     41 C41          5.3820     3.4030    11.0050 c3         1 UNL       0.149400
     42 C42          6.2710    -6.7560     4.1340 ce         1 UNL       0.511400
     43 C43          4.4250     3.8310    12.0970 c3         1 UNL      -0.104100
     44 H1           7.2820    -4.1280    11.8720 hn         1 UNL       0.466800
     45 H2           5.9140    -6.4520     2.1180 hn         1 UNL       0.330950
     46 H3           4.5080    -6.4930     3.0820 hn         1 UNL       0.330950
     47 H4           6.8980    -8.5580     3.5220 hn         1 UNL       0.330950
     48 H5           7.5060    -8.0530     5.0330 hn         1 UNL       0.330950
     49 H6           7.7420    -3.7580     9.4370 h1         1 UNL       0.084700
     50 H7           4.2120    -2.2400    11.3630 h1         1 UNL       0.069700
     51 H8           3.7280    -1.4830     9.8520 h1         1 UNL       0.069700
     52 H9           5.4000    -1.6780     7.8750 h1         1 UNL       0.069700
     53 H10          6.8950    -2.5310     8.2210 h1         1 UNL       0.069700
     54 H11         10.3520    -3.8440    12.9920 hc         1 UNL       0.048200
     55 H12          7.8510    -7.2740    11.3080 hc         1 UNL       0.048200
     56 H13          4.4510     0.2480    11.3350 h1         1 UNL       0.082950
     57 H14          5.9400    -0.6160    11.6790 h1         1 UNL       0.082950
     58 H15          7.6400    -0.7930     9.6700 h1         1 UNL       0.082950
     59 H16          7.1030    -0.0410     8.1750 h1         1 UNL       0.082950
     60 H17          6.1920    -6.2850     9.2680 hc         1 UNL       0.086700
     61 H18          7.9230    -6.1360     8.9450 hc         1 UNL       0.086700
     62 H19         10.1980    -5.5630    16.2280 ha         1 UNL       0.153500
     63 H20          7.7780    -8.6470    14.7110 ha         1 UNL       0.153500
     64 H21          8.4360    -8.7450    16.8460 hc         1 UNL       0.061700
     65 H22         10.2260    -3.3310    15.9580 hc         1 UNL       0.046200
     66 H23          9.0080    -2.8690    14.7930 hc         1 UNL       0.046200
     67 H24         10.5950    -2.1400    14.7340 hc         1 UNL       0.046200
     68 H25         12.2510    -4.6890    15.1720 hc         1 UNL       0.046200
     69 H26         12.5640    -3.4600    13.9700 hc         1 UNL       0.046200
     70 H27         12.3780    -5.1280    13.4850 hc         1 UNL       0.046200
     71 H28          7.9230    -9.8980    12.7870 hc         1 UNL       0.046200
     72 H29          9.1840    -9.2810    11.7470 hc         1 UNL       0.046200
     73 H30          7.6270    -9.7020    11.0760 hc         1 UNL       0.046200
     74 H31          5.8690    -8.4400    13.2540 hc         1 UNL       0.046200
     75 H32          5.6310    -8.2850    11.5300 hc         1 UNL       0.046200
     76 H33          5.7670    -6.8550    12.5250 hc         1 UNL       0.046200
     77 H34          8.5780    -6.0280    18.1430 hc         1 UNL       0.044867
     78 H35          8.0370    -7.4980    18.9180 hc         1 UNL       0.044867
     79 H36          7.1190    -6.8190    17.5950 hc         1 UNL       0.044867
     80 H37         10.8400    -7.1480    17.7160 hc         1 UNL       0.044867
     81 H38         10.8860    -8.6840    16.8840 hc         1 UNL       0.044867
     82 H39         10.2360    -8.5870    18.5020 hc         1 UNL       0.044867
     83 H40          6.7560    -7.1600     6.7220 ha         1 UNL       0.170000
     84 H41          6.5550    -3.1530     7.9770 ha         1 UNL       0.162000
     85 H42          6.0920    -2.4620     5.6970 ha         1 UNL       0.164000
     86 H43          5.9610    -4.1200     3.9300 ha         1 UNL       0.146000
     87 H44          5.5070     4.2010    10.3040 h1         1 UNL       0.058200
     88 H45          6.3320     3.1580    11.4320 h1         1 UNL       0.058200
     89 H46          3.4770     4.0750    11.6650 hc         1 UNL       0.052033
     90 H47          4.8190     4.6900    12.6000 hc         1 UNL       0.052033
     91 H48          4.3030     3.0330    12.7980 hc         1 UNL       0.052033
@<TRIPOS>BOND
     1     1     2 2   
     2     1     3 2   
     3     1     8 1   
     4     1    12 1   
     5     4    18 2   
     6     5    35 1   
     7     5    41 1   
     8     6    35 2   
     9     7    16 1   
    10     7    17 1   
    11     7    18 1   
    12     8    13 1   
    13     9    21 1   
    14     9    22 1   
    15     9    35 1   
    16    10    42 2   
    17    11    42 1   
    18    12    14 ar  
    19    12    15 ar  
    20    13    18 1   
    21    13    24 1   
    22    14    19 1   
    23    14    25 ar  
    24    15    20 1   
    25    15    26 ar  
    26    16    21 1   
    27    17    22 1   
    28    19    28 1   
    29    19    29 1   
    30    20    30 1   
    31    20    31 1   
    32    23    25 ar  
    33    23    26 ar  
    34    23    27 1   
    35    24    32 1   
    36    27    33 1   
    37    27    34 1   
    38    32    36 ar  
    39    32    37 ar  
    40    36    38 ar  
    41    37    39 ar  
    42    38    40 ar  
    43    38    42 1   
    44    39    40 ar  
    45    41    43 1   
    46     8    44 1   
    47    10    45 1   
    48    10    46 1   
    49    11    47 1   
    50    11    48 1   
    51    13    49 1   
    52    16    50 1   
    53    16    51 1   
    54    17    52 1   
    55    17    53 1   
    56    19    54 1   
    57    20    55 1   
    58    21    56 1   
    59    21    57 1   
    60    22    58 1   
    61    22    59 1   
    62    24    60 1   
    63    24    61 1   
    64    25    62 1   
    65    26    63 1   
    66    27    64 1   
    67    28    65 1   
    68    28    66 1   
    69    28    67 1   
    70    29    68 1   
    71    29    69 1   
    72    29    70 1   
    73    30    71 1   
    74    30    72 1   
    75    30    73 1   
    76    31    74 1   
    77    31    75 1   
    78    31    76 1   
    79    33    77 1   
    80    33    78 1   
    81    33    79 1   
    82    34    80 1   
    83    34    81 1   
    84    34    82 1   
    85    36    83 1   
    86    37    84 1   
    87    39    85 1   
    88    40    86 1   
    89    41    87 1   
    90    41    88 1   
    91    43    89 1   
    92    43    90 1   
    93    43    91 1   
@<TRIPOS>SUBSTRUCTURE
     1 UNL         1 TEMP              0 ****  ****    0 ROOT
