@<TRIPOS>MOLECULE
9895193
   91    93     1     0     0
SMALL
bcc


@<TRIPOS>ATOM
      1 S1           8.5800    -6.6680    10.5180 sy         1 UNL       1.518200
      2 O2           9.7660    -6.6350     9.6840 o          1 UNL      -0.660800
      3 O3           7.5280    -7.6310    10.2530 o          1 UNL      -0.660800
      4 O4           5.2810    -6.1210     9.1920 o          1 UNL      -0.632100
      5 O5           2.8420    -3.5500    15.0490 os         1 UNL      -0.440900
      6 O6           3.6980    -1.5020    14.5020 o          1 UNL      -0.578000
      7 N7           4.9720    -4.4200    10.7430 n          1 UNL      -0.458800
      8 N8           7.9000    -5.1090    10.5910 n3         1 UNL      -0.911100
      9 N9           4.3240    -3.3870    13.2950 n          1 UNL      -0.455800
     10 N10          5.9720    -6.6550     3.1530 nh         1 UNL      -0.471600
     11 N11          3.8340    -5.8000     3.5520 nh         1 UNL      -0.455700
     12 C12          9.0960    -6.9150    12.1900 ca         1 UNL      -0.410500
     13 C13          7.0810    -4.6060     9.4730 c3         1 UNL       0.208500
     14 C14         10.0230    -6.0480    12.7700 ca         1 UNL       0.056700
     15 C15          8.5790    -7.9790    12.9300 ca         1 UNL       0.056700
     16 C16          3.9940    -5.1220    11.5780 c3         1 UNL       0.071000
     17 C17          5.0440    -2.9710    10.9750 c3         1 UNL       0.071000
     18 C18          5.6990    -5.1220     9.7830 c          1 UNL       0.641100
     19 C19         10.5970    -4.8970    12.0100 c3         1 UNL      -0.047400
     20 C20          7.5870    -8.9290    12.3420 c3         1 UNL      -0.047400
     21 C21          4.2340    -4.8320    13.0570 c3         1 UNL       0.074500
     22 C22          5.2860    -2.6750    12.4520 c3         1 UNL       0.074500
     23 C23          9.9130    -7.3080    14.8290 ca         1 UNL       0.019700
     24 C24          7.5700    -5.1640     8.1450 c3         1 UNL      -0.085100
     25 C25         10.4310    -6.2450    14.0890 ca         1 UNL      -0.164000
     26 C26          8.9870    -8.1750    14.2490 ca         1 UNL      -0.164000
     27 C27         10.3500    -7.5190    16.2390 c3         1 UNL      -0.038400
     28 C28         10.0830    -3.5400    12.5240 c3         1 UNL      -0.089100
     29 C29         12.1360    -4.9080    12.0050 c3         1 UNL      -0.089100
     30 C30          8.0700   -10.3900    12.3980 c3         1 UNL      -0.089100
     31 C31          6.2000    -8.8090    12.9990 c3         1 UNL      -0.089100
     32 C32          6.8090    -4.5950     6.9720 ca         1 UNL      -0.059300
     33 C33         10.0270    -6.3130    17.1420 c3         1 UNL      -0.091100
     34 C34         11.8480    -7.8640    16.3460 c3         1 UNL      -0.091100
     35 C35          3.6250    -2.7130    14.3000 c          1 UNL       0.743100
     36 C36          6.3270    -5.4430     5.9750 ca         1 UNL      -0.065000
     37 C37          6.5860    -3.2210     6.8860 ca         1 UNL      -0.063000
     38 C38          5.6230    -4.9170     4.8920 ca         1 UNL      -0.261900
     39 C39          5.8820    -2.6950     5.8030 ca         1 UNL      -0.121000
     40 C40          5.4000    -3.5430     4.8060 ca         1 UNL      -0.087000
     41 C41          3.3620    -3.9230    16.3310 c3         1 UNL       0.149400
     42 C42          5.1210    -5.8010     3.8520 ce         1 UNL       0.526400
     43 C43          2.3770    -3.5060    17.4020 c3         1 UNL      -0.130100
     44 H1           8.6750    -4.4550    10.7050 hn         1 UNL       0.445800
     45 H2           6.9390    -6.6450     3.3370 hn         1 UNL       0.325450
     46 H3           5.6060    -7.2680     2.4750 hn         1 UNL       0.325450
     47 H4           3.4920    -6.3970     2.8480 hn         1 UNL       0.325450
     48 H5           3.2170    -5.2020     4.0330 hn         1 UNL       0.325450
     49 H6           7.1220    -3.5410     9.3810 h1         1 UNL       0.057700
     50 H7           4.0790    -6.1750    11.4080 h1         1 UNL       0.069450
     51 H8           3.0140    -4.7800    11.3170 h1         1 UNL       0.069450
     52 H9           4.1210    -2.5210    10.6730 h1         1 UNL       0.069450
     53 H10          5.8560    -2.5700    10.4050 h1         1 UNL       0.069450
     54 H11         10.2590    -5.0230    11.0020 hc         1 UNL       0.059200
     55 H12          7.4950    -8.6470    11.3140 hc         1 UNL       0.059200
     56 H13          3.4240    -5.2330    13.6300 h1         1 UNL       0.066450
     57 H14          5.1570    -5.2870    13.3510 h1         1 UNL       0.066450
     58 H15          6.2760    -2.9850    12.7130 h1         1 UNL       0.066450
     59 H16          5.1680    -1.6230    12.6130 h1         1 UNL       0.066450
     60 H17          7.4480    -6.2270     8.1520 hc         1 UNL       0.107200
     61 H18          8.5980    -4.8900     8.0320 hc         1 UNL       0.107200
     62 H19         11.1160    -5.6030    14.5180 ha         1 UNL       0.150500
     63 H20          8.6040    -8.9620    14.7960 ha         1 UNL       0.150500
     64 H21          9.7870    -8.3590    16.5880 hc         1 UNL       0.060700
     65 H22         10.4100    -3.3940    13.5320 hc         1 UNL       0.044450
     66 H23          9.0130    -3.5280    12.4900 hc         1 UNL       0.044450
     67 H24         10.4680    -2.7560    11.9060 hc         1 UNL       0.044450
     68 H25         12.4970    -4.7830    13.0050 hc         1 UNL       0.044450
     69 H26         12.4970    -4.1070    11.3940 hc         1 UNL       0.044450
     70 H27         12.4860    -5.8400    11.6130 hc         1 UNL       0.044450
     71 H28          8.1690   -10.6930    13.4200 hc         1 UNL       0.044450
     72 H29          9.0170   -10.4710    11.9090 hc         1 UNL       0.044450
     73 H30          7.3580   -11.0200    11.9060 hc         1 UNL       0.044450
     74 H31          6.2680    -9.0870    14.0300 hc         1 UNL       0.044450
     75 H32          5.5110    -9.4580    12.5000 hc         1 UNL       0.044450
     76 H33          5.8560    -7.7990    12.9240 hc         1 UNL       0.044450
     77 H34         10.5810    -5.4600    16.8100 hc         1 UNL       0.043200
     78 H35         10.2950    -6.5420    18.1520 hc         1 UNL       0.043200
     79 H36          8.9790    -6.1000    17.0910 hc         1 UNL       0.043200
     80 H37         12.4300    -7.0350    16.0020 hc         1 UNL       0.043200
     81 H38         12.0590    -8.7230    15.7440 hc         1 UNL       0.043200
     82 H39         12.0930    -8.0740    17.3660 hc         1 UNL       0.043200
     83 H40          6.4920    -6.4600     6.0390 ha         1 UNL       0.182000
     84 H41          6.9420    -2.5930     7.6240 ha         1 UNL       0.167000
     85 H42          5.7170    -1.6780     5.7400 ha         1 UNL       0.165000
     86 H43          4.8790    -3.1540     4.0050 ha         1 UNL       0.145000
     87 H44          4.2980    -3.4320    16.4940 h1         1 UNL       0.069700
     88 H45          3.5090    -4.9820    16.3670 h1         1 UNL       0.069700
     89 H46          2.2330    -2.4470    17.3620 hc         1 UNL       0.053700
     90 H47          2.7600    -3.7780    18.3640 hc         1 UNL       0.053700
     91 H48          1.4420    -4.0000    17.2390 hc         1 UNL       0.053700
@<TRIPOS>BOND
     1     1     2 2   
     2     1     3 2   
     3     1     8 1   
     4     1    12 1   
     5     4    18 2   
     6     5    35 1   
     7     5    41 1   
     8     6    35 2   
     9     7    16 1   
    10     7    17 1   
    11     7    18 1   
    12     8    13 1   
    13     9    21 1   
    14     9    22 1   
    15     9    35 1   
    16    10    42 2   
    17    11    42 1   
    18    12    14 ar  
    19    12    15 ar  
    20    13    18 1   
    21    13    24 1   
    22    14    19 1   
    23    14    25 ar  
    24    15    20 1   
    25    15    26 ar  
    26    16    21 1   
    27    17    22 1   
    28    19    28 1   
    29    19    29 1   
    30    20    30 1   
    31    20    31 1   
    32    23    25 ar  
    33    23    26 ar  
    34    23    27 1   
    35    24    32 1   
    36    27    33 1   
    37    27    34 1   
    38    32    36 ar  
    39    32    37 ar  
    40    36    38 ar  
    41    37    39 ar  
    42    38    40 ar  
    43    38    42 1   
    44    39    40 ar  
    45    41    43 1   
    46     8    44 1   
    47    10    45 1   
    48    10    46 1   
    49    11    47 1   
    50    11    48 1   
    51    13    49 1   
    52    16    50 1   
    53    16    51 1   
    54    17    52 1   
    55    17    53 1   
    56    19    54 1   
    57    20    55 1   
    58    21    56 1   
    59    21    57 1   
    60    22    58 1   
    61    22    59 1   
    62    24    60 1   
    63    24    61 1   
    64    25    62 1   
    65    26    63 1   
    66    27    64 1   
    67    28    65 1   
    68    28    66 1   
    69    28    67 1   
    70    29    68 1   
    71    29    69 1   
    72    29    70 1   
    73    30    71 1   
    74    30    72 1   
    75    30    73 1   
    76    31    74 1   
    77    31    75 1   
    78    31    76 1   
    79    33    77 1   
    80    33    78 1   
    81    33    79 1   
    82    34    80 1   
    83    34    81 1   
    84    34    82 1   
    85    36    83 1   
    86    37    84 1   
    87    39    85 1   
    88    40    86 1   
    89    41    87 1   
    90    41    88 1   
    91    43    89 1   
    92    43    90 1   
    93    43    91 1   
@<TRIPOS>SUBSTRUCTURE
     1 UNL         1 TEMP              0 ****  ****    0 ROOT
