@<TRIPOS>MOLECULE
9831652
   85    89     1     0     0
SMALL
bcc


@<TRIPOS>ATOM
      1 Cl1          6.6870    -3.3430     9.5740 cl         1 UNL      -0.072400
      2 Cl2         10.6730    -3.1800    13.2620 cl         1 UNL      -0.044400
      3 S3           6.4950    -0.1360     9.6930 sy         1 UNL       1.511200
      4 O4           6.9520    -0.1890     8.3160 o          1 UNL      -0.657800
      5 O5           5.1620    -0.5930    10.0430 o          1 UNL      -0.657800
      6 O6           9.3340     1.9830     9.0230 o          1 UNL      -0.597100
      7 O7           8.0210    -5.1550    12.4530 os         1 UNL      -0.377900
      8 O8           8.6660     8.1900    13.6970 o          1 UNL      -0.597300
      9 N9           6.7360     1.4290    10.3110 n3         1 UNL      -0.803500
     10 N10          8.7830     3.9290    10.1760 n          1 UNL      -0.552900
     11 N11          8.6630     6.0260    12.8610 n          1 UNL      -0.554900
     12 N12          5.3990    -5.6510    11.7670 nb         1 UNL      -0.727000
     13 N13          2.2570     5.9600    16.2550 nh         1 UNL      -0.783100
     14 N14          1.6420     7.0000    14.2550 nh         1 UNL      -0.783100
     15 C15          7.0380     2.5230     9.3470 c3         1 UNL       0.153500
     16 C16          6.2070     3.7180     9.8020 c3         1 UNL      -0.097400
     17 C17          5.9400     3.4420    11.2720 c3         1 UNL      -0.101400
     18 C18          5.7440     1.9350    11.3000 c3         1 UNL       0.198800
     19 C19          8.5050     2.7650     9.4790 c          1 UNL       0.631100
     20 C20          7.6480    -1.0490    10.6720 ca         1 UNL      -0.351500
     21 C21         10.1270     4.3780    10.4600 c3         1 UNL       0.075000
     22 C22          7.7320    -2.4410    10.6230 ca         1 UNL       0.143400
     23 C23          8.4940    -0.3290    11.5160 ca         1 UNL      -0.008000
     24 C24         10.1740     5.8330    10.9200 c3         1 UNL      -0.120400
     25 C25          8.6610    -3.1120    11.4180 ca         1 UNL      -0.120300
     26 C26          9.4230    -1.0000    12.3110 ca         1 UNL      -0.146000
     27 C27          9.5070    -2.3910    12.2620 ca         1 UNL       0.090400
     28 C28         10.0350     6.0070    12.4310 c3         1 UNL       0.083000
     29 C29          8.7580    -4.6070    11.3700 c3         1 UNL       0.168700
     30 C30          7.5700    -6.4420    12.3080 ca         1 UNL       0.009800
     31 C31          8.0820     7.1340    13.4680 c2         1 UNL       0.659300
     32 C32          6.2430    -6.6820    11.9610 ca         1 UNL       0.397600
     33 C33          5.8250    -8.0220    11.8230 ca         1 UNL      -0.141300
     34 C34          8.4730    -7.4870    12.5170 ca         1 UNL      -0.120000
     35 C35          6.6620     6.9850    13.8780 cc         1 UNL      -0.068000
     36 C36          4.4900    -8.2640    11.4740 ca         1 UNL      -0.000300
     37 C37          6.7340    -9.0730    12.0330 ca         1 UNL      -0.093000
     38 C38          8.0550    -8.8050    12.3800 ca         1 UNL      -0.121000
     39 C39          4.1180    -5.9270    11.4310 ca         1 UNL       0.446600
     40 C40          3.6180    -7.2040    11.2730 ca         1 UNL      -0.252300
     41 C41          3.9490    -9.6490    11.3030 c3         1 UNL      -0.073800
     42 C42          6.2420     5.8270    14.5320 cc         1 UNL      -0.098500
     43 C43          5.7480     8.0040    13.6070 cc         1 UNL      -0.098500
     44 C44          3.2170    -4.7560    11.2260 c3         1 UNL      -0.158400
     45 C45          4.9090     5.6870    14.9160 cd         1 UNL      -0.090500
     46 C46          4.4150     7.8640    13.9910 cd         1 UNL      -0.090500
     47 C47          3.9950     6.7060    14.6460 cd         1 UNL      -0.133000
     48 C48          2.6050     6.5610    15.0460 c2         1 UNL       0.484000
     49 H1           8.0290     4.4770    10.4940 hn         1 UNL       0.308500
     50 H2           8.1130     5.2220    12.7190 hn         1 UNL       0.313500
     51 H3           2.9050     5.3860    16.7230 hn         1 UNL       0.484050
     52 H4           1.3640     6.1100    16.6410 hn         1 UNL       0.484050
     53 H5           0.7000     6.9020    14.5240 hn         1 UNL       0.484050
     54 H6           1.8660     7.4240    13.3950 hn         1 UNL       0.484050
     55 H7           6.8060     2.3140     8.3240 h1         1 UNL       0.114700
     56 H8           5.2900     3.7740     9.2530 hc         1 UNL       0.077200
     57 H9           6.7050     4.6510     9.6420 hc         1 UNL       0.077200
     58 H10          5.0610     3.9510    11.6070 hc         1 UNL       0.065700
     59 H11          6.7250     3.7800    11.9170 hc         1 UNL       0.065700
     60 H12          5.9440     1.5430    12.2750 h1         1 UNL       0.059700
     61 H13          4.7420     1.6450    11.0650 h1         1 UNL       0.059700
     62 H14         10.7160     4.2800     9.5720 h1         1 UNL       0.061200
     63 H15         10.5100     3.7740    11.2550 h1         1 UNL       0.061200
     64 H16          8.4310     0.7010    11.5520 ha         1 UNL       0.178000
     65 H17          9.3750     6.3630    10.4450 hc         1 UNL       0.067200
     66 H18         11.1360     6.2150    10.6500 hc         1 UNL       0.067200
     67 H19         10.0480    -0.4670    12.9360 ha         1 UNL       0.178000
     68 H20         10.5350     5.1950    12.9170 h1         1 UNL       0.075200
     69 H21         10.4690     6.9490    12.6910 h1         1 UNL       0.075200
     70 H22          8.3530    -4.9630    10.4460 h1         1 UNL       0.077700
     71 H23          9.7830    -4.9050    11.4440 h1         1 UNL       0.077700
     72 H24          9.4510    -7.2800    12.7740 ha         1 UNL       0.151000
     73 H25          6.4190   -10.0510    11.9300 ha         1 UNL       0.152000
     74 H26          8.7190    -9.5790    12.5340 ha         1 UNL       0.153000
     75 H27          2.6310    -7.3640    11.0160 ha         1 UNL       0.158000
     76 H28          4.7270   -10.3600    11.4870 hc         1 UNL       0.062367
     77 H29          3.5850    -9.7690    10.3040 hc         1 UNL       0.062367
     78 H30          3.1490    -9.8070    11.9950 hc         1 UNL       0.062367
     79 H31          6.9180     5.0730    14.7320 ha         1 UNL       0.170000
     80 H32          6.0590     8.8600    13.1230 ha         1 UNL       0.170000
     81 H33          3.7650    -3.8510    11.3880 hc         1 UNL       0.058367
     82 H34          2.4020    -4.8080    11.9170 hc         1 UNL       0.058367
     83 H35          2.8370    -4.7690    10.2260 hc         1 UNL       0.058367
     84 H36          4.5980     4.8310    15.4000 ha         1 UNL       0.164500
     85 H37          3.7390     8.6180    13.7910 ha         1 UNL       0.164500
@<TRIPOS>BOND
     1     1    22 1   
     2     2    27 1   
     3     3     4 2   
     4     3     5 2   
     5     3     9 1   
     6     3    20 1   
     7     6    19 2   
     8     7    29 1   
     9     7    30 1   
    10     8    31 1   
    11     9    15 1   
    12     9    18 1   
    13    10    19 1   
    14    10    21 1   
    15    11    28 1   
    16    11    31 1   
    17    12    32 ar  
    18    12    39 ar  
    19    13    48 1   
    20    14    48 1   
    21    15    16 1   
    22    15    19 1   
    23    16    17 1   
    24    17    18 1   
    25    20    22 ar  
    26    20    23 ar  
    27    21    24 1   
    28    22    25 ar  
    29    23    26 ar  
    30    24    28 1   
    31    25    27 ar  
    32    25    29 1   
    33    26    27 ar  
    34    30    32 ar  
    35    30    34 ar  
    36    31    35 2   
    37    32    33 ar  
    38    33    36 ar  
    39    33    37 ar  
    40    34    38 ar  
    41    35    42 1   
    42    35    43 1   
    43    36    40 ar  
    44    36    41 1   
    45    37    38 ar  
    46    39    40 ar  
    47    39    44 1   
    48    42    45 2   
    49    43    46 2   
    50    45    47 1   
    51    46    47 1   
    52    47    48 2   
    53    10    49 1   
    54    11    50 1   
    55    13    51 1   
    56    13    52 1   
    57    14    53 1   
    58    14    54 1   
    59    15    55 1   
    60    16    56 1   
    61    16    57 1   
    62    17    58 1   
    63    17    59 1   
    64    18    60 1   
    65    18    61 1   
    66    21    62 1   
    67    21    63 1   
    68    23    64 1   
    69    24    65 1   
    70    24    66 1   
    71    26    67 1   
    72    28    68 1   
    73    28    69 1   
    74    29    70 1   
    75    29    71 1   
    76    34    72 1   
    77    37    73 1   
    78    38    74 1   
    79    40    75 1   
    80    41    76 1   
    81    41    77 1   
    82    41    78 1   
    83    42    79 1   
    84    43    80 1   
    85    44    81 1   
    86    44    82 1   
    87    44    83 1   
    88    45    84 1   
    89    46    85 1   
@<TRIPOS>SUBSTRUCTURE
     1 UNL         1 TEMP              0 ****  ****    0 ROOT
