@<TRIPOS>MOLECULE
9831652
   85    89     1     0     0
SMALL
bcc


@<TRIPOS>ATOM
      1 Cl1         10.0750     2.5640    10.1370 cl         1 UNL      -0.055400
      2 Cl2         10.5160     7.0390    13.1850 cl         1 UNL      -0.031400
      3 S3           8.9280     0.9810    12.6890 sy         1 UNL       1.516200
      4 O4           9.7990     0.3340    11.7260 o          1 UNL      -0.660800
      5 O5           8.8410     0.4880    14.0510 o          1 UNL      -0.660800
      6 O6           6.4160    -1.3710    12.5650 o          1 UNL      -0.587100
      7 O7          11.4120     4.5450     9.7110 os         1 UNL      -0.355900
      8 O8           6.5570    -1.8710     8.1010 o          1 UNL      -0.617300
      9 N9           7.3630     1.1170    12.0380 n3         1 UNL      -0.835500
     10 N10          4.2920    -0.4210    12.6170 n          1 UNL      -0.575900
     11 N11          4.5920    -2.8170     8.8910 n          1 UNL      -0.556900
     12 N12         13.2580     2.5080     9.8910 nb         1 UNL      -0.736000
     13 N13          6.7270    -7.9900     4.2410 nh         1 UNL      -0.805100
     14 N14          5.4990    -6.5940     2.8260 nh         1 UNL      -0.805100
     15 C15          6.2050     0.9670    12.9620 c3         1 UNL       0.160500
     16 C16          5.2170     2.0600    12.5700 c3         1 UNL      -0.072400
     17 C17          5.5800     2.3850    11.1300 c3         1 UNL      -0.087400
     18 C18          7.0950     2.2700    11.1340 c3         1 UNL       0.229800
     19 C19          5.6730    -0.4030    12.7020 c          1 UNL       0.639100
     20 C20          9.3920     2.6850    12.7660 ca         1 UNL      -0.359500
     21 C21          3.5320    -1.6210    12.3490 c3         1 UNL       0.084000
     22 C22          9.8910     3.3730    11.6600 ca         1 UNL       0.133400
     23 C23          9.2440     3.3420    13.9870 ca         1 UNL      -0.007000
     24 C24          4.1990    -2.5170    11.3070 c3         1 UNL      -0.122400
     25 C25         10.2430     4.7180    11.7750 ca         1 UNL      -0.138300
     26 C26          9.5960     4.6870    14.1030 ca         1 UNL      -0.149000
     27 C27         10.0950     5.3750    12.9970 ca         1 UNL       0.092400
     28 C28          4.3490    -1.8610     9.9360 c3         1 UNL       0.083000
     29 C29         10.7800     5.4630    10.5910 c3         1 UNL       0.165700
     30 C30         12.7320     4.7740     9.4210 ca         1 UNL       0.055800
     31 C31          5.6930    -2.7430     8.0460 c2         1 UNL       0.664300
     32 C32         13.6570     3.7380     9.5150 ca         1 UNL       0.401600
     33 C33         15.0040     4.0210     9.2060 ca         1 UNL      -0.123300
     34 C34         13.1120     6.0610     9.0330 ca         1 UNL      -0.171000
     35 C35          5.7870    -3.7930     6.9990 cc         1 UNL      -0.054000
     36 C36         15.9360     2.9780     9.3010 ca         1 UNL       0.002700
     37 C37         15.3860     5.3160     8.8170 ca         1 UNL      -0.119000
     38 C38         14.4400     6.3330     8.7310 ca         1 UNL      -0.094000
     39 C39         14.1880     1.5300     9.9710 ca         1 UNL       0.434600
     40 C40         15.5270     1.7100     9.6890 ca         1 UNL      -0.250300
     41 C41         17.3870     3.1750     8.9950 c3         1 UNL      -0.074800
     42 C42          6.6040    -4.9060     7.1990 cc         1 UNL      -0.069000
     43 C43          5.0590    -3.6650     5.8160 cc         1 UNL      -0.069000
     44 C44         13.7030     0.1830    10.3920 c3         1 UNL      -0.166400
     45 C45          6.6920    -5.8910     6.2150 cd         1 UNL      -0.102000
     46 C46          5.1470    -4.6500     4.8330 cd         1 UNL      -0.102000
     47 C47          5.9640    -5.7640     5.0330 cd         1 UNL      -0.157000
     48 C48          6.0550    -6.7910     4.0080 c2         1 UNL       0.488000
     49 H1           3.8030     0.4240    12.7460 hn         1 UNL       0.314500
     50 H2           3.9520    -3.5550     8.7680 hn         1 UNL       0.334500
     51 H3           6.6670    -8.7230     3.5870 hn         1 UNL       0.484800
     52 H4           7.2600    -8.1040     5.0610 hn         1 UNL       0.484800
     53 H5           5.5600    -7.2880     2.1310 hn         1 UNL       0.484800
     54 H6           5.0230    -5.7520     2.6400 hn         1 UNL       0.484800
     55 H7           6.4290     1.0660    14.0040 h1         1 UNL       0.103700
     56 H8           5.3340     2.9200    13.1950 hc         1 UNL       0.078700
     57 H9           4.1980     1.7520    12.6780 hc         1 UNL       0.078700
     58 H10          5.2690     3.3740    10.8680 hc         1 UNL       0.064700
     59 H11          5.1070     1.7420    10.4180 hc         1 UNL       0.064700
     60 H12          7.4650     2.0750    10.1490 h1         1 UNL       0.045200
     61 H13          7.5770     3.1690    11.4570 h1         1 UNL       0.045200
     62 H14          2.5640    -1.3410    11.9910 h1         1 UNL       0.067700
     63 H15          3.4690    -2.1760    13.2620 h1         1 UNL       0.067700
     64 H16          8.8750     2.8330    14.8050 ha         1 UNL       0.189000
     65 H17          3.6080    -3.4020    11.1950 hc         1 UNL       0.070700
     66 H18          5.1870    -2.7260    11.6620 hc         1 UNL       0.070700
     67 H19          9.4870     5.1730    15.0060 ha         1 UNL       0.176000
     68 H20          3.4490    -1.3280     9.7110 h1         1 UNL       0.064200
     69 H21          5.1950    -1.2070     9.9800 h1         1 UNL       0.064200
     70 H22          9.9770     5.9530    10.0810 h1         1 UNL       0.073700
     71 H23         11.4890     6.1960    10.9170 h1         1 UNL       0.073700
     72 H24         12.4050     6.8110     8.9720 ha         1 UNL       0.149000
     73 H25         16.3740     5.5140     8.5930 ha         1 UNL       0.153000
     74 H26         14.7240     7.2830     8.4450 ha         1 UNL       0.154000
     75 H27         16.2000     0.9310     9.7640 ha         1 UNL       0.159000
     76 H28         17.5570     4.1930     8.7110 hc         1 UNL       0.064700
     77 H29         17.6740     2.5290     8.1920 hc         1 UNL       0.064700
     78 H30         17.9700     2.9450     9.8630 hc         1 UNL       0.064700
     79 H31          7.1430    -5.0000     8.0740 ha         1 UNL       0.178500
     80 H32          4.4540    -2.8410     5.6690 ha         1 UNL       0.178500
     81 H33         12.6490     0.2230    10.5690 hc         1 UNL       0.057700
     82 H34         14.2040    -0.1120    11.2910 hc         1 UNL       0.057700
     83 H35         13.9090    -0.5280     9.6200 hc         1 UNL       0.057700
     84 H36          7.2970    -6.7140     6.3630 ha         1 UNL       0.147000
     85 H37          4.6080    -4.5560     3.9580 ha         1 UNL       0.147000
@<TRIPOS>BOND
     1     1    22 1   
     2     2    27 1   
     3     3     4 2   
     4     3     5 2   
     5     3     9 1   
     6     3    20 1   
     7     6    19 2   
     8     7    29 1   
     9     7    30 1   
    10     8    31 1   
    11     9    15 1   
    12     9    18 1   
    13    10    19 1   
    14    10    21 1   
    15    11    28 1   
    16    11    31 1   
    17    12    32 ar  
    18    12    39 ar  
    19    13    48 1   
    20    14    48 1   
    21    15    16 1   
    22    15    19 1   
    23    16    17 1   
    24    17    18 1   
    25    20    22 ar  
    26    20    23 ar  
    27    21    24 1   
    28    22    25 ar  
    29    23    26 ar  
    30    24    28 1   
    31    25    27 ar  
    32    25    29 1   
    33    26    27 ar  
    34    30    32 ar  
    35    30    34 ar  
    36    31    35 2   
    37    32    33 ar  
    38    33    36 ar  
    39    33    37 ar  
    40    34    38 ar  
    41    35    42 1   
    42    35    43 1   
    43    36    40 ar  
    44    36    41 1   
    45    37    38 ar  
    46    39    40 ar  
    47    39    44 1   
    48    42    45 2   
    49    43    46 2   
    50    45    47 1   
    51    46    47 1   
    52    47    48 2   
    53    10    49 1   
    54    11    50 1   
    55    13    51 1   
    56    13    52 1   
    57    14    53 1   
    58    14    54 1   
    59    15    55 1   
    60    16    56 1   
    61    16    57 1   
    62    17    58 1   
    63    17    59 1   
    64    18    60 1   
    65    18    61 1   
    66    21    62 1   
    67    21    63 1   
    68    23    64 1   
    69    24    65 1   
    70    24    66 1   
    71    26    67 1   
    72    28    68 1   
    73    28    69 1   
    74    29    70 1   
    75    29    71 1   
    76    34    72 1   
    77    37    73 1   
    78    38    74 1   
    79    40    75 1   
    80    41    76 1   
    81    41    77 1   
    82    41    78 1   
    83    42    79 1   
    84    43    80 1   
    85    44    81 1   
    86    44    82 1   
    87    44    83 1   
    88    45    84 1   
    89    46    85 1   
@<TRIPOS>SUBSTRUCTURE
     1 UNL         1 TEMP              0 ****  ****    0 ROOT
