@<TRIPOS>MOLECULE
9895193
   91    93     1     0     0
SMALL
bcc


@<TRIPOS>ATOM
      1 S1           7.1180    -6.4980    10.0030 sy         1 UNL       1.539200
      2 O2           7.9910    -7.3560     9.2250 o          1 UNL      -0.700300
      3 O3           5.7370    -6.3090     9.6030 o          1 UNL      -0.700300
      4 O4           7.3870    -3.2790    11.9880 o          1 UNL      -0.599100
      5 O5           7.8960     3.2740    10.0730 os         1 UNL      -0.438900
      6 O6           6.4680     2.8720     8.3340 o          1 UNL      -0.579000
      7 N7           6.9290    -1.4850    10.5860 n          1 UNL      -0.465800
      8 N8           7.8530    -4.9750    10.1980 n3         1 UNL      -0.914100
      9 N9           7.3810     1.0980     9.5240 n          1 UNL      -0.404800
     10 N10          5.5460    -6.1850     3.4210 nh         1 UNL      -0.470100
     11 N11          7.1680    -6.7920     4.9900 nh         1 UNL      -0.454200
     12 C12          7.0960    -7.1050    11.6630 ca         1 UNL      -0.413500
     13 C13          7.1950    -3.7640     9.6760 c3         1 UNL       0.186500
     14 C14          5.8810    -7.4030    12.2800 ca         1 UNL       0.060200
     15 C15          8.2930    -7.2830    12.3560 ca         1 UNL       0.060200
     16 C16          7.5090    -0.4450    11.4400 c3         1 UNL       0.057000
     17 C17          6.0550    -0.9790     9.5200 c3         1 UNL       0.057000
     18 C18          7.1800    -2.8290    10.8580 c          1 UNL       0.643100
     19 C19          4.5790    -7.2270    11.5680 c3         1 UNL      -0.043400
     20 C20          9.6130    -6.9720    11.7290 c3         1 UNL      -0.043400
     21 C21          8.2420     0.6000    10.6030 c3         1 UNL       0.060500
     22 C22          6.7830     0.0650     8.6770 c3         1 UNL       0.060500
     23 C23          7.0610    -8.0590    14.2840 ca         1 UNL       0.025700
     24 C24          5.7760    -4.0670     9.2210 c3         1 UNL      -0.063100
     25 C25          5.8640    -7.8810    13.5910 ca         1 UNL      -0.162500
     26 C26          8.2760    -7.7610    13.6670 ca         1 UNL      -0.162500
     27 C27          7.0430    -8.5690    15.6850 c3         1 UNL      -0.039400
     28 C28          3.7400    -8.5180    11.5520 c3         1 UNL      -0.090350
     29 C29          3.7480    -6.0680    12.1470 c3         1 UNL      -0.090350
     30 C30         10.3000    -5.7580    12.3790 c3         1 UNL      -0.090350
     31 C31         10.5650    -8.1810    11.7370 c3         1 UNL      -0.090350
     32 C32          5.6140    -3.9350     7.7270 ca         1 UNL      -0.080300
     33 C33          7.4900    -7.5040    16.7050 c3         1 UNL      -0.091100
     34 C34          7.8870    -9.8450    15.8590 c3         1 UNL      -0.091100
     35 C35          7.1880     2.4510     9.2370 c          1 UNL       0.720100
     36 C36          5.9730    -4.9920     6.8900 ca         1 UNL      -0.069000
     37 C37          5.1050    -2.7560     7.1820 ca         1 UNL      -0.070000
     38 C38          5.8220    -4.8690     5.5080 ca         1 UNL      -0.237900
     39 C39          4.9550    -2.6330     5.8010 ca         1 UNL      -0.116000
     40 C40          5.3140    -3.6900     4.9640 ca         1 UNL      -0.086000
     41 C41          9.1780     3.7030     9.6000 c3         1 UNL       0.149400
     42 C42          6.1960    -5.9700     4.6350 ce         1 UNL       0.511400
     43 C43          9.7060     4.7820    10.5210 c3         1 UNL      -0.104100
     44 H1           8.7670    -5.0300     9.7480 hn         1 UNL       0.471800
     45 H2           4.6240    -5.8660     3.2930 hn         1 UNL       0.331450
     46 H3           6.0090    -6.6570     2.6910 hn         1 UNL       0.331450
     47 H4           7.4230    -7.5370     4.4000 hn         1 UNL       0.331450
     48 H5           7.6370    -6.6580     5.8460 hn         1 UNL       0.331450
     49 H6           7.6990    -3.3580     8.8240 h1         1 UNL       0.094700
     50 H7           8.2000    -0.8960    12.1220 h1         1 UNL       0.061700
     51 H8           6.7190     0.0390    11.9750 h1         1 UNL       0.061700
     52 H9           5.1860    -0.5340     9.9580 h1         1 UNL       0.061700
     53 H10          5.7730    -1.7960     8.8890 h1         1 UNL       0.061700
     54 H11          4.8360    -6.9830    10.5590 hc         1 UNL       0.049200
     55 H12          9.3940    -6.7260    10.7100 hc         1 UNL       0.049200
     56 H13          8.5260     1.4180    11.2320 h1         1 UNL       0.084450
     57 H14          9.1090     0.1460    10.1690 h1         1 UNL       0.084450
     58 H15          7.5550    -0.4170     8.1140 h1         1 UNL       0.084450
     59 H16          6.0750     0.5280     8.0220 h1         1 UNL       0.084450
     60 H17          5.1070    -3.3840     9.7020 hc         1 UNL       0.079200
     61 H18          5.5550    -5.0800     9.4870 hc         1 UNL       0.079200
     62 H19          4.9650    -8.1020    14.0470 ha         1 UNL       0.152500
     63 H20          9.1610    -7.8930    14.1790 ha         1 UNL       0.152500
     64 H21          6.0200    -8.8140    15.8840 hc         1 UNL       0.061700
     65 H22          3.4720    -8.7810    12.5540 hc         1 UNL       0.045783
     66 H23          4.3130    -9.3090    11.1160 hc         1 UNL       0.045783
     67 H24          2.8530    -8.3590    10.9750 hc         1 UNL       0.045783
     68 H25          3.4790    -6.2910    13.1580 hc         1 UNL       0.045783
     69 H26          2.8600    -5.9390    11.5620 hc         1 UNL       0.045783
     70 H27          4.3250    -5.1670    12.1210 hc         1 UNL       0.045783
     71 H28         10.5280    -5.9820    13.4000 hc         1 UNL       0.045783
     72 H29          9.6450    -4.9130    12.3370 hc         1 UNL       0.045783
     73 H30         11.2040    -5.5350    11.8530 hc         1 UNL       0.045783
     74 H31         10.7980    -8.4450    12.7480 hc         1 UNL       0.045783
     75 H32         11.4660    -7.9290    11.2180 hc         1 UNL       0.045783
     76 H33         10.0940    -9.0100    11.2520 hc         1 UNL       0.045783
     77 H34          8.5120    -7.2440    16.5240 hc         1 UNL       0.044367
     78 H35          7.3920    -7.8950    17.6960 hc         1 UNL       0.044367
     79 H36          6.8770    -6.6330    16.6030 hc         1 UNL       0.044367
     80 H37          8.9150    -9.6220    15.6650 hc         1 UNL       0.044367
     81 H38          7.5490   -10.5930    15.1730 hc         1 UNL       0.044367
     82 H39          7.7840   -10.2080    16.8610 hc         1 UNL       0.044367
     83 H40          6.3490    -5.8640     7.2920 ha         1 UNL       0.171000
     84 H41          4.8400    -1.9740     7.8020 ha         1 UNL       0.156000
     85 H42          4.5790    -1.7610     5.3980 ha         1 UNL       0.165000
     86 H43          5.2020    -3.5990     3.9420 ha         1 UNL       0.147000
     87 H44          9.0820     4.0930     8.6090 h1         1 UNL       0.058200
     88 H45          9.8550     2.8750     9.5880 h1         1 UNL       0.058200
     89 H46          9.0270     5.6080    10.5300 hc         1 UNL       0.052700
     90 H47         10.6630     5.1110    10.1730 hc         1 UNL       0.052700
     91 H48          9.8040     4.3890    11.5120 hc         1 UNL       0.052700
@<TRIPOS>BOND
     1     1     2 2   
     2     1     3 2   
     3     1     8 1   
     4     1    12 1   
     5     4    18 2   
     6     5    35 1   
     7     5    41 1   
     8     6    35 2   
     9     7    16 1   
    10     7    17 1   
    11     7    18 1   
    12     8    13 1   
    13     9    21 1   
    14     9    22 1   
    15     9    35 1   
    16    10    42 2   
    17    11    42 1   
    18    12    14 ar  
    19    12    15 ar  
    20    13    18 1   
    21    13    24 1   
    22    14    19 1   
    23    14    25 ar  
    24    15    20 1   
    25    15    26 ar  
    26    16    21 1   
    27    17    22 1   
    28    19    28 1   
    29    19    29 1   
    30    20    30 1   
    31    20    31 1   
    32    23    25 ar  
    33    23    26 ar  
    34    23    27 1   
    35    24    32 1   
    36    27    33 1   
    37    27    34 1   
    38    32    36 ar  
    39    32    37 ar  
    40    36    38 ar  
    41    37    39 ar  
    42    38    40 ar  
    43    38    42 1   
    44    39    40 ar  
    45    41    43 1   
    46     8    44 1   
    47    10    45 1   
    48    10    46 1   
    49    11    47 1   
    50    11    48 1   
    51    13    49 1   
    52    16    50 1   
    53    16    51 1   
    54    17    52 1   
    55    17    53 1   
    56    19    54 1   
    57    20    55 1   
    58    21    56 1   
    59    21    57 1   
    60    22    58 1   
    61    22    59 1   
    62    24    60 1   
    63    24    61 1   
    64    25    62 1   
    65    26    63 1   
    66    27    64 1   
    67    28    65 1   
    68    28    66 1   
    69    28    67 1   
    70    29    68 1   
    71    29    69 1   
    72    29    70 1   
    73    30    71 1   
    74    30    72 1   
    75    30    73 1   
    76    31    74 1   
    77    31    75 1   
    78    31    76 1   
    79    33    77 1   
    80    33    78 1   
    81    33    79 1   
    82    34    80 1   
    83    34    81 1   
    84    34    82 1   
    85    36    83 1   
    86    37    84 1   
    87    39    85 1   
    88    40    86 1   
    89    41    87 1   
    90    41    88 1   
    91    43    89 1   
    92    43    90 1   
    93    43    91 1   
@<TRIPOS>SUBSTRUCTURE
     1 UNL         1 TEMP              0 ****  ****    0 ROOT
