@<TRIPOS>MOLECULE
9831652
   85    89     1     0     0
SMALL
bcc


@<TRIPOS>ATOM
      1 Cl1          3.6010    -3.2490    14.1100 cl         1 UNL      -0.027400
      2 Cl2          4.5480    -8.3540    12.5100 cl         1 UNL      -0.050400
      3 S3           3.6760    -2.3100    11.0360 sy         1 UNL       1.512200
      4 O4           2.3460    -2.2010    10.4680 o          1 UNL      -0.641800
      5 O5           4.0690    -1.4750    12.1560 o          1 UNL      -0.641800
      6 O6           8.1760    -1.4330    10.7000 o          1 UNL      -0.668100
      7 O7           2.7150    -6.1020    15.0850 os         1 UNL      -0.322900
      8 O8           8.5940     2.7440    11.1120 o          1 UNL      -0.593300
      9 N9           4.8350    -2.1740     9.7980 n3         1 UNL      -0.817500
     10 N10          6.2820    -0.2550    10.0330 n          1 UNL      -0.542900
     11 N11          7.3130     4.1850     9.8210 n          1 UNL      -0.533900
     12 N12          1.1560    -5.7610    17.3310 nb         1 UNL      -0.677000
     13 N13         13.0660     8.1770     8.8170 nh         1 UNL      -0.807100
     14 N14         14.3640     6.3850     9.5700 nh         1 UNL      -0.807100
     15 C15          6.2200    -2.6420    10.0830 c3         1 UNL       0.183500
     16 C16          6.6630    -3.4040     8.8380 c3         1 UNL      -0.082400
     17 C17          5.7760    -2.8530     7.7340 c3         1 UNL      -0.088400
     18 C18          4.4470    -2.6520     8.4420 c3         1 UNL       0.218800
     19 C19          7.0140    -1.3980    10.3040 c          1 UNL       0.653100
     20 C20          3.9150    -3.9950    11.5140 ca         1 UNL      -0.373500
     21 C21          6.8150     1.0800    10.1900 c3         1 UNL       0.085000
     22 C22          3.8840    -4.4040    12.8470 ca         1 UNL       0.152400
     23 C23          4.1400    -4.9290    10.5030 ca         1 UNL      -0.023000
     24 C24          6.0300     2.1210     9.3960 c3         1 UNL      -0.136400
     25 C25          4.0780    -5.7470    13.1690 ca         1 UNL      -0.103300
     26 C26          4.3350    -6.2720    10.8250 ca         1 UNL      -0.159000
     27 C27          4.3040    -6.6810    12.1580 ca         1 UNL       0.093400
     28 C28          6.0550     3.5170    10.0160 c3         1 UNL       0.075000
     29 C29          4.0460    -6.1940    14.6000 c3         1 UNL       0.174700
     30 C30          2.2260    -7.1870    15.7660 ca         1 UNL       0.053800
     31 C31          8.4970     3.7370    10.3940 c2         1 UNL       0.654300
     32 C32          1.4400    -7.0050    16.9000 ca         1 UNL       0.381600
     33 C33          0.9600    -8.1520    17.5670 ca         1 UNL      -0.134300
     34 C34          2.5400    -8.4630    15.2900 ca         1 UNL      -0.135000
     35 C35          9.7070     4.5530    10.1180 cc         1 UNL      -0.054000
     36 C36          0.1680    -7.9680    18.7080 ca         1 UNL      -0.021300
     37 C37          1.2760    -9.4350    17.0880 ca         1 UNL      -0.120000
     38 C38          2.0650    -9.5880    15.9520 ca         1 UNL      -0.116000
     39 C39          0.3890    -5.6280    18.4380 ca         1 UNL       0.438600
     40 C40         -0.1250    -6.6880    19.1560 ca         1 UNL      -0.251300
     41 C41         -0.3890    -9.1190    19.4850 c3         1 UNL      -0.064800
     42 C42         10.4470     4.3330     8.9560 cc         1 UNL      -0.087000
     43 C43         10.1040     5.5400    11.0210 cc         1 UNL      -0.087000
     44 C44          0.0990    -4.2330    18.8820 c3         1 UNL      -0.154400
     45 C45         11.5840     5.0990     8.6980 cd         1 UNL      -0.091000
     46 C46         11.2400     6.3060    10.7620 cd         1 UNL      -0.091000
     47 C47         11.9800     6.0860     9.6000 cd         1 UNL      -0.170000
     48 C48         13.1640     6.8850     9.3310 c2         1 UNL       0.509000
     49 H1           5.3550    -0.3550     9.7190 hn         1 UNL       0.351500
     50 H2           7.3360     4.9930     9.2590 hn         1 UNL       0.308500
     51 H3          13.8710     8.6390     8.4900 hn         1 UNL       0.481550
     52 H4          12.1910     8.6260     8.7800 hn         1 UNL       0.481550
     53 H5          15.1670     6.9250     9.3870 hn         1 UNL       0.481550
     54 H6          14.4550     5.4740     9.9300 hn         1 UNL       0.481550
     55 H7           6.3250    -3.2840    10.9330 h1         1 UNL       0.072700
     56 H8           6.5090    -4.4550     8.9610 hc         1 UNL       0.067700
     57 H9           7.7050    -3.2800     8.6300 hc         1 UNL       0.067700
     58 H10          5.6830    -3.5520     6.9300 hc         1 UNL       0.055700
     59 H11          6.1590    -1.9590     7.2880 hc         1 UNL       0.055700
     60 H12          3.8530    -1.9200     7.9360 h1         1 UNL       0.059200
     61 H13          3.8550    -3.5420     8.4710 h1         1 UNL       0.059200
     62 H14          7.8300     1.0850     9.8540 h1         1 UNL       0.062200
     63 H15          6.7410     1.3390    11.2260 h1         1 UNL       0.062200
     64 H16          4.1630    -4.6260     9.5160 ha         1 UNL       0.141000
     65 H17          5.0120     1.7990     9.3310 hc         1 UNL       0.065200
     66 H18          6.4970     2.1980     8.4360 hc         1 UNL       0.065200
     67 H19          4.5020    -6.9630    10.0770 ha         1 UNL       0.159000
     68 H20          5.2820     4.1050     9.5670 h1         1 UNL       0.077200
     69 H21          5.9060     3.4060    11.0690 h1         1 UNL       0.077200
     70 H22          4.3810    -7.2080    14.6660 h1         1 UNL       0.080200
     71 H23          4.6880    -5.5710    15.1870 h1         1 UNL       0.080200
     72 H24          3.1260    -8.5690    14.4470 ha         1 UNL       0.150000
     73 H25          0.9210   -10.2680    17.5820 ha         1 UNL       0.139000
     74 H26          2.2950   -10.5320    15.6030 ha         1 UNL       0.139000
     75 H27         -0.7070    -6.5350    19.9940 ha         1 UNL       0.147000
     76 H28         -0.0840   -10.0380    19.0300 hc         1 UNL       0.053700
     77 H29         -1.4570    -9.0620    19.4920 hc         1 UNL       0.053700
     78 H30         -0.0230    -9.0810    20.4900 hc         1 UNL       0.053700
     79 H31         10.1540     3.6030     8.2880 ha         1 UNL       0.195500
     80 H32          9.5560     5.7020    11.8810 ha         1 UNL       0.195500
     81 H33          0.5720    -3.5410    18.2160 hc         1 UNL       0.056700
     82 H34          0.4760    -4.0880    19.8730 hc         1 UNL       0.056700
     83 H35         -0.9580    -4.0690    18.8750 hc         1 UNL       0.056700
     84 H36         12.1310     4.9360     7.8380 ha         1 UNL       0.151000
     85 H37         11.5330     7.0360    11.4300 ha         1 UNL       0.151000
@<TRIPOS>BOND
     1     1    22 1   
     2     2    27 1   
     3     3     4 2   
     4     3     5 2   
     5     3     9 1   
     6     3    20 1   
     7     6    19 2   
     8     7    29 1   
     9     7    30 1   
    10     8    31 1   
    11     9    15 1   
    12     9    18 1   
    13    10    19 1   
    14    10    21 1   
    15    11    28 1   
    16    11    31 1   
    17    12    32 ar  
    18    12    39 ar  
    19    13    48 1   
    20    14    48 1   
    21    15    16 1   
    22    15    19 1   
    23    16    17 1   
    24    17    18 1   
    25    20    22 ar  
    26    20    23 ar  
    27    21    24 1   
    28    22    25 ar  
    29    23    26 ar  
    30    24    28 1   
    31    25    27 ar  
    32    25    29 1   
    33    26    27 ar  
    34    30    32 ar  
    35    30    34 ar  
    36    31    35 2   
    37    32    33 ar  
    38    33    36 ar  
    39    33    37 ar  
    40    34    38 ar  
    41    35    42 1   
    42    35    43 1   
    43    36    40 ar  
    44    36    41 1   
    45    37    38 ar  
    46    39    40 ar  
    47    39    44 1   
    48    42    45 2   
    49    43    46 2   
    50    45    47 1   
    51    46    47 1   
    52    47    48 2   
    53    10    49 1   
    54    11    50 1   
    55    13    51 1   
    56    13    52 1   
    57    14    53 1   
    58    14    54 1   
    59    15    55 1   
    60    16    56 1   
    61    16    57 1   
    62    17    58 1   
    63    17    59 1   
    64    18    60 1   
    65    18    61 1   
    66    21    62 1   
    67    21    63 1   
    68    23    64 1   
    69    24    65 1   
    70    24    66 1   
    71    26    67 1   
    72    28    68 1   
    73    28    69 1   
    74    29    70 1   
    75    29    71 1   
    76    34    72 1   
    77    37    73 1   
    78    38    74 1   
    79    40    75 1   
    80    41    76 1   
    81    41    77 1   
    82    41    78 1   
    83    42    79 1   
    84    43    80 1   
    85    44    81 1   
    86    44    82 1   
    87    44    83 1   
    88    45    84 1   
    89    46    85 1   
@<TRIPOS>SUBSTRUCTURE
     1 UNL         1 TEMP              0 ****  ****    0 ROOT
