@<TRIPOS>MOLECULE
9895193
   91    93     1     0     0
SMALL
bcc


@<TRIPOS>ATOM
      1 S1           3.4190    -3.5160    11.3260 sy         1 UNL       1.509200
      2 O2           2.6900    -4.7480    11.0920 o          1 UNL      -0.655300
      3 O3           2.7200    -2.2450    11.3370 o          1 UNL      -0.655300
      4 O4           4.5490    -1.2580     9.0080 o          1 UNL      -0.687100
      5 O5           7.4360     4.2520    11.8660 os         1 UNL      -0.442900
      6 O6           9.3710     3.0740    12.1720 o          1 UNL      -0.570000
      7 N7           6.2900    -0.1360    10.0580 n          1 UNL      -0.449800
      8 N8           4.7270    -3.4220    10.2400 n3         1 UNL      -0.909100
      9 N9           7.4160     1.9680    11.5760 n          1 UNL      -0.408800
     10 N10          5.6500    -4.0420     4.0010 nh         1 UNL      -0.475100
     11 N11          5.4850    -2.0610     5.2300 nh         1 UNL      -0.459200
     12 C12          4.2490    -3.6610    12.8800 ca         1 UNL      -0.404500
     13 C13          5.8600    -2.5230    10.5240 c3         1 UNL       0.201500
     14 C14          4.7940    -4.8840    13.2680 ca         1 UNL       0.051200
     15 C15          4.3580    -2.5510    13.7180 ca         1 UNL       0.051200
     16 C16          5.7090     1.2060     9.9720 c3         1 UNL       0.052500
     17 C17          7.7250    -0.1600    10.3730 c3         1 UNL       0.052500
     18 C18          5.5020    -1.2550     9.7910 c          1 UNL       0.669100
     19 C19          4.7000    -6.0940    12.3950 c3         1 UNL      -0.046400
     20 C20          3.7850    -1.2250    13.3370 c3         1 UNL      -0.046400
     21 C21          5.9870     2.0010    11.2450 c3         1 UNL       0.060500
     22 C22          8.0090     0.6320    11.6470 c3         1 UNL       0.060500
     23 C23          5.5570    -3.8890    15.3330 ca         1 UNL       0.017700
     24 C24          7.1610    -3.0970     9.9850 c3         1 UNL      -0.064100
     25 C25          5.4480    -4.9990    14.4950 ca         1 UNL      -0.164000
     26 C26          5.0120    -2.6660    14.9450 ca         1 UNL      -0.164000
     27 C27          6.2560    -4.0110    16.6450 c3         1 UNL      -0.038400
     28 C28          6.0750    -6.7270    12.1200 c3         1 UNL      -0.090100
     29 C29          3.7380    -7.1530    12.9640 c3         1 UNL      -0.090100
     30 C30          2.7960    -0.6900    14.3890 c3         1 UNL      -0.090100
     31 C31          4.8740    -0.1740    13.0590 c3         1 UNL      -0.090100
     32 C32          6.9530    -3.8940     8.7200 ca         1 UNL      -0.072300
     33 C33          7.7380    -4.4020    16.4890 c3         1 UNL      -0.091100
     34 C34          5.5530    -4.9980    17.5970 c3         1 UNL      -0.091100
     35 C35          8.1730     3.0980    11.8940 c          1 UNL       0.721100
     36 C36          6.4810    -3.2640     7.5690 ca         1 UNL      -0.056000
     37 C37          7.2330    -5.2600     8.7030 ca         1 UNL      -0.056000
     38 C38          6.2900    -4.0000     6.4000 ca         1 UNL      -0.265900
     39 C39          7.0420    -5.9960     7.5340 ca         1 UNL      -0.122000
     40 C40          6.5700    -5.3660     6.3830 ca         1 UNL      -0.081000
     41 C41          6.5790     4.4810    12.9910 c3         1 UNL       0.149400
     42 C42          5.7980    -3.3450     5.1980 ce         1 UNL       0.522400
     43 C43          5.1580     4.6580    12.5010 c3         1 UNL      -0.131100
     44 H1           4.3420    -3.1340     9.3410 hn         1 UNL       0.451800
     45 H2           4.7630    -4.1150     3.5800 hn         1 UNL       0.327200
     46 H3           6.4330    -4.4610     3.5750 hn         1 UNL       0.327200
     47 H4           5.1520    -1.6160     4.4180 hn         1 UNL       0.327200
     48 H5           5.5860    -1.5510     6.0660 hn         1 UNL       0.327200
     49 H6           6.0130    -2.3740    11.5730 h1         1 UNL       0.076700
     50 H7           4.6520     1.1220     9.8350 h1         1 UNL       0.067450
     51 H8           6.1540     1.7190     9.1450 h1         1 UNL       0.067450
     52 H9           8.2700     0.2720     9.5610 h1         1 UNL       0.067450
     53 H10          8.0280    -1.1760    10.5240 h1         1 UNL       0.067450
     54 H11          4.3000    -5.7450    11.4660 hc         1 UNL       0.053200
     55 H12          3.2460    -1.3970    12.4290 hc         1 UNL       0.053200
     56 H13          5.6840     3.0170    11.0980 h1         1 UNL       0.084700
     57 H14          5.4370     1.5630    12.0510 h1         1 UNL       0.084700
     58 H15          7.5950     0.1090    12.4840 h1         1 UNL       0.084700
     59 H16          9.0690     0.7340    11.7560 h1         1 UNL       0.084700
     60 H17          7.5890    -3.7370    10.7290 hc         1 UNL       0.079200
     61 H18          7.8100    -2.2780     9.7550 hc         1 UNL       0.079200
     62 H19          5.8520    -5.9040    14.7820 ha         1 UNL       0.151000
     63 H20          5.0920    -1.8450    15.5650 ha         1 UNL       0.151000
     64 H21          6.2110    -3.0360    17.0820 hc         1 UNL       0.061700
     65 H22          6.4940    -7.0840    13.0380 hc         1 UNL       0.045033
     66 H23          6.7260    -5.9940    11.6920 hc         1 UNL       0.045033
     67 H24          5.9620    -7.5450    11.4390 hc         1 UNL       0.045033
     68 H25          4.1180    -7.5160    13.8960 hc         1 UNL       0.045033
     69 H26          3.6530    -7.9650    12.2730 hc         1 UNL       0.045033
     70 H27          2.7750    -6.7140    13.1190 hc         1 UNL       0.045033
     71 H28          3.3140    -0.5110    15.3070 hc         1 UNL       0.045033
     72 H29          2.0220    -1.4110    14.5510 hc         1 UNL       0.045033
     73 H30          2.3630     0.2240    14.0390 hc         1 UNL       0.045033
     74 H31          5.4260     0.0140    13.9560 hc         1 UNL       0.045033
     75 H32          4.4160     0.7340    12.7250 hc         1 UNL       0.045033
     76 H33          5.5360    -0.5390    12.3010 hc         1 UNL       0.045033
     77 H34          7.8060    -5.3770    16.0530 hc         1 UNL       0.043533
     78 H35          8.2080    -4.4070    17.4500 hc         1 UNL       0.043533
     79 H36          8.2290    -3.6930    15.8560 hc         1 UNL       0.043533
     80 H37          5.5870    -5.9820    17.1780 hc         1 UNL       0.043533
     81 H38          4.5330    -4.7020    17.7290 hc         1 UNL       0.043533
     82 H39          6.0510    -4.9960    18.5440 hc         1 UNL       0.043533
     83 H40          6.2740    -2.2530     7.5820 ha         1 UNL       0.163000
     84 H41          7.5820    -5.7260     9.5550 ha         1 UNL       0.195000
     85 H42          7.2490    -7.0070     7.5210 ha         1 UNL       0.168000
     86 H43          6.4290    -5.9110     5.5180 ha         1 UNL       0.143000
     87 H44          6.8930     5.3640    13.5070 h1         1 UNL       0.068700
     88 H45          6.6300     3.6470    13.6590 h1         1 UNL       0.068700
     89 H46          5.1120     5.4930    11.8330 hc         1 UNL       0.055367
     90 H47          4.5120     4.8330    13.3350 hc         1 UNL       0.055367
     91 H48          4.8450     3.7730    11.9870 hc         1 UNL       0.055367
@<TRIPOS>BOND
     1     1     2 2   
     2     1     3 2   
     3     1     8 1   
     4     1    12 1   
     5     4    18 2   
     6     5    35 1   
     7     5    41 1   
     8     6    35 2   
     9     7    16 1   
    10     7    17 1   
    11     7    18 1   
    12     8    13 1   
    13     9    21 1   
    14     9    22 1   
    15     9    35 1   
    16    10    42 2   
    17    11    42 1   
    18    12    14 ar  
    19    12    15 ar  
    20    13    18 1   
    21    13    24 1   
    22    14    19 1   
    23    14    25 ar  
    24    15    20 1   
    25    15    26 ar  
    26    16    21 1   
    27    17    22 1   
    28    19    28 1   
    29    19    29 1   
    30    20    30 1   
    31    20    31 1   
    32    23    25 ar  
    33    23    26 ar  
    34    23    27 1   
    35    24    32 1   
    36    27    33 1   
    37    27    34 1   
    38    32    36 ar  
    39    32    37 ar  
    40    36    38 ar  
    41    37    39 ar  
    42    38    40 ar  
    43    38    42 1   
    44    39    40 ar  
    45    41    43 1   
    46     8    44 1   
    47    10    45 1   
    48    10    46 1   
    49    11    47 1   
    50    11    48 1   
    51    13    49 1   
    52    16    50 1   
    53    16    51 1   
    54    17    52 1   
    55    17    53 1   
    56    19    54 1   
    57    20    55 1   
    58    21    56 1   
    59    21    57 1   
    60    22    58 1   
    61    22    59 1   
    62    24    60 1   
    63    24    61 1   
    64    25    62 1   
    65    26    63 1   
    66    27    64 1   
    67    28    65 1   
    68    28    66 1   
    69    28    67 1   
    70    29    68 1   
    71    29    69 1   
    72    29    70 1   
    73    30    71 1   
    74    30    72 1   
    75    30    73 1   
    76    31    74 1   
    77    31    75 1   
    78    31    76 1   
    79    33    77 1   
    80    33    78 1   
    81    33    79 1   
    82    34    80 1   
    83    34    81 1   
    84    34    82 1   
    85    36    83 1   
    86    37    84 1   
    87    39    85 1   
    88    40    86 1   
    89    41    87 1   
    90    41    88 1   
    91    43    89 1   
    92    43    90 1   
    93    43    91 1   
@<TRIPOS>SUBSTRUCTURE
     1 UNL         1 TEMP              0 ****  ****    0 ROOT
