@<TRIPOS>MOLECULE
9895193
   91    93     1     0     0
SMALL
bcc


@<TRIPOS>ATOM
      1 S1           5.9410    -1.1270    11.0880 sy         1 UNL       1.516200
      2 O2           5.7090    -1.4670    12.4790 o          1 UNL      -0.653300
      3 O3           4.9440    -0.3830    10.3430 o          1 UNL      -0.653300
      4 O4           3.2760    -3.1000    10.6260 o          1 UNL      -0.696100
      5 O5           4.5680    -9.5270    12.6000 os         1 UNL      -0.439900
      6 O6           6.8070    -9.0670    12.6170 o          1 UNL      -0.573000
      7 N7           4.6900    -4.8550    11.1860 n          1 UNL      -0.441800
      8 N8           6.3450    -2.5370    10.2240 n3         1 UNL      -0.903100
      9 N9           5.3200    -7.5760    11.6350 n          1 UNL      -0.405800
     10 N10          5.3940    -6.3470     2.8730 nh         1 UNL      -0.470100
     11 N11          6.9430    -7.2540     4.3700 nh         1 UNL      -0.454200
     12 C12          7.4460    -0.2040    10.9970 ca         1 UNL      -0.392500
     13 C13          5.3180    -3.2360     9.4310 c3         1 UNL       0.184500
     14 C14          8.6100    -0.7090    11.5780 ca         1 UNL       0.047200
     15 C15          7.4710     1.0290    10.3450 ca         1 UNL       0.047200
     16 C16          3.6530    -5.7620    11.6840 c3         1 UNL       0.053500
     17 C17          6.0600    -5.2260    11.5680 c3         1 UNL       0.053500
     18 C18          4.3330    -3.7170    10.4660 c          1 UNL       0.663100
     19 C19          8.6230    -2.0260    12.2830 c3         1 UNL      -0.061900
     20 C20          6.2440     1.6020     9.7130 c3         1 UNL      -0.061900
     21 C21          3.9480    -7.2020    11.2720 c3         1 UNL       0.061500
     22 C22          6.3610    -6.6650    11.1570 c3         1 UNL       0.061500
     23 C23          9.8210     1.2530    10.8550 ca         1 UNL       0.012700
     24 C24          5.9170    -4.4160     8.6810 c3         1 UNL      -0.057100
     25 C25          9.7970     0.0200    11.5070 ca         1 UNL      -0.161500
     26 C26          8.6580     1.7570    10.2740 ca         1 UNL      -0.161500
     27 C27         11.0910     2.0320    10.7800 c3         1 UNL      -0.037400
     28 C28          9.5850    -3.0330    11.6250 c3         1 UNL      -0.086850
     29 C29          8.9520    -1.8870    13.7800 c3         1 UNL      -0.086850
     30 C30          5.7720     2.8900    10.4120 c3         1 UNL      -0.086850
     31 C31          6.4270     1.8590     8.2070 c3         1 UNL      -0.086850
     32 C32          5.8930    -4.2150     7.1860 ca         1 UNL      -0.073300
     33 C33         11.0770     3.2690    11.6980 c3         1 UNL      -0.090600
     34 C34         11.4380     2.4540     9.3400 c3         1 UNL      -0.090600
     35 C35          5.6590    -8.7510    12.3110 c          1 UNL       0.721100
     36 C36          6.0170    -5.3110     6.3320 ca         1 UNL      -0.062000
     37 C37          5.7460    -2.9320     6.6570 ca         1 UNL      -0.068000
     38 C38          5.9940    -5.1240     4.9500 ca         1 UNL      -0.247900
     39 C39          5.7230    -2.7460     5.2750 ca         1 UNL      -0.120000
     40 C40          5.8470    -3.8420     4.4210 ca         1 UNL      -0.083000
     41 C41          4.0840   -10.3570    11.5380 c3         1 UNL       0.149400
     42 C42          6.1240    -6.2660     4.0580 ce         1 UNL       0.516400
     43 C43          2.8260   -11.0630    11.9970 c3         1 UNL      -0.104100
     44 H1           6.6970    -3.2080    10.9060 hn         1 UNL       0.442800
     45 H2           5.8610    -6.4830     2.0170 hn         1 UNL       0.330950
     46 H3           4.4130    -6.2700     2.8930 hn         1 UNL       0.330950
     47 H4           7.0320    -8.0280     3.7680 hn         1 UNL       0.330950
     48 H5           7.4640    -7.2170     5.2040 hn         1 UNL       0.330950
     49 H6           4.8750    -2.6070     8.6870 h1         1 UNL       0.109700
     50 H7           2.7070    -5.4690    11.2800 h1         1 UNL       0.064700
     51 H8           3.6360    -5.7090    12.7520 h1         1 UNL       0.064700
     52 H9           6.1660    -5.1340    12.6290 h1         1 UNL       0.064700
     53 H10          6.7460    -4.5740    11.0690 h1         1 UNL       0.064700
     54 H11          7.6280    -2.4080    12.1940 hc         1 UNL       0.082700
     55 H12          5.4850     0.8580     9.8360 hc         1 UNL       0.082700
     56 H13          3.2620    -7.8570    11.7690 h1         1 UNL       0.082450
     57 H14          3.8380    -7.2860    10.2110 h1         1 UNL       0.082450
     58 H15          6.4120    -6.7210    10.0900 h1         1 UNL       0.082450
     59 H16          7.2940    -6.9560    11.5920 h1         1 UNL       0.082450
     60 H17          5.3570    -5.2960     8.9190 hc         1 UNL       0.077200
     61 H18          6.9400    -4.5120     8.9830 hc         1 UNL       0.077200
     62 H19         10.6580    -0.3530    11.9370 ha         1 UNL       0.150000
     63 H20          8.6760     2.6690     9.7920 ha         1 UNL       0.150000
     64 H21         11.8530     1.3660    11.1270 hc         1 UNL       0.060700
     65 H22         10.5880    -2.6700    11.7030 hc         1 UNL       0.042033
     66 H23          9.3270    -3.1510    10.5940 hc         1 UNL       0.042033
     67 H24          9.5070    -3.9770    12.1230 hc         1 UNL       0.042033
     68 H25          9.9450    -1.5060    13.8930 hc         1 UNL       0.042033
     69 H26          8.8820    -2.8450    14.2510 hc         1 UNL       0.042033
     70 H27          8.2570    -1.2140    14.2370 hc         1 UNL       0.042033
     71 H28          6.5170     3.6490    10.3020 hc         1 UNL       0.042033
     72 H29          5.6130     2.6940    11.4520 hc         1 UNL       0.042033
     73 H30          4.8570     3.2220     9.9670 hc         1 UNL       0.042033
     74 H31          7.1830     2.6010     8.0600 hc         1 UNL       0.042033
     75 H32          5.5040     2.2030     7.7890 hc         1 UNL       0.042033
     76 H33          6.7200     0.9500     7.7230 hc         1 UNL       0.042033
     77 H34         10.3200     3.9500    11.3680 hc         1 UNL       0.042533
     78 H35         12.0310     3.7520    11.6610 hc         1 UNL       0.042533
     79 H36         10.8700     2.9660    12.7030 hc         1 UNL       0.042533
     80 H37         10.6870     3.1220     8.9730 hc         1 UNL       0.042533
     81 H38         11.4810     1.5870     8.7150 hc         1 UNL       0.042533
     82 H39         12.3880     2.9470     9.3320 hc         1 UNL       0.042533
     83 H40          6.1260    -6.2600     6.7230 ha         1 UNL       0.170000
     84 H41          5.6550    -2.1220     7.2890 ha         1 UNL       0.159000
     85 H42          5.6140    -1.7970     4.8840 ha         1 UNL       0.164000
     86 H43          5.8300    -3.7030     3.3990 ha         1 UNL       0.147000
     87 H44          4.8280   -11.0810    11.2810 h1         1 UNL       0.060200
     88 H45          3.8680    -9.7560    10.6790 h1         1 UNL       0.060200
     89 H46          3.0470   -11.6620    12.8560 hc         1 UNL       0.053367
     90 H47          2.4600   -11.6880    11.2100 hc         1 UNL       0.053367
     91 H48          2.0820   -10.3370    12.2510 hc         1 UNL       0.053367
@<TRIPOS>BOND
     1     1     2 2   
     2     1     3 2   
     3     1     8 1   
     4     1    12 1   
     5     4    18 2   
     6     5    35 1   
     7     5    41 1   
     8     6    35 2   
     9     7    16 1   
    10     7    17 1   
    11     7    18 1   
    12     8    13 1   
    13     9    21 1   
    14     9    22 1   
    15     9    35 1   
    16    10    42 2   
    17    11    42 1   
    18    12    14 ar  
    19    12    15 ar  
    20    13    18 1   
    21    13    24 1   
    22    14    19 1   
    23    14    25 ar  
    24    15    20 1   
    25    15    26 ar  
    26    16    21 1   
    27    17    22 1   
    28    19    28 1   
    29    19    29 1   
    30    20    30 1   
    31    20    31 1   
    32    23    25 ar  
    33    23    26 ar  
    34    23    27 1   
    35    24    32 1   
    36    27    33 1   
    37    27    34 1   
    38    32    36 ar  
    39    32    37 ar  
    40    36    38 ar  
    41    37    39 ar  
    42    38    40 ar  
    43    38    42 1   
    44    39    40 ar  
    45    41    43 1   
    46     8    44 1   
    47    10    45 1   
    48    10    46 1   
    49    11    47 1   
    50    11    48 1   
    51    13    49 1   
    52    16    50 1   
    53    16    51 1   
    54    17    52 1   
    55    17    53 1   
    56    19    54 1   
    57    20    55 1   
    58    21    56 1   
    59    21    57 1   
    60    22    58 1   
    61    22    59 1   
    62    24    60 1   
    63    24    61 1   
    64    25    62 1   
    65    26    63 1   
    66    27    64 1   
    67    28    65 1   
    68    28    66 1   
    69    28    67 1   
    70    29    68 1   
    71    29    69 1   
    72    29    70 1   
    73    30    71 1   
    74    30    72 1   
    75    30    73 1   
    76    31    74 1   
    77    31    75 1   
    78    31    76 1   
    79    33    77 1   
    80    33    78 1   
    81    33    79 1   
    82    34    80 1   
    83    34    81 1   
    84    34    82 1   
    85    36    83 1   
    86    37    84 1   
    87    39    85 1   
    88    40    86 1   
    89    41    87 1   
    90    41    88 1   
    91    43    89 1   
    92    43    90 1   
    93    43    91 1   
@<TRIPOS>SUBSTRUCTURE
     1 UNL         1 TEMP              0 ****  ****    0 ROOT
