@<TRIPOS>MOLECULE
9831652
   85    89     1     0     0
SMALL
bcc


@<TRIPOS>ATOM
      1 Cl1          6.5010    -0.0420     9.0530 cl         1 UNL      -0.043400
      2 Cl2          9.7050    -1.9740    12.9920 cl         1 UNL      -0.047400
      3 S3           5.0650    -2.9130     8.8630 sy         1 UNL       1.511200
      4 O4           4.2500    -3.9730     9.4250 o          1 UNL      -0.646800
      5 O5           4.4690    -1.6400     8.5020 o          1 UNL      -0.646800
      6 O6           8.4300    -4.4960     7.6260 o          1 UNL      -0.679100
      7 O7           7.9030     1.1700    10.4520 os         1 UNL      -0.313900
      8 O8          10.8000    -8.7880    13.2650 o          1 UNL      -0.617300
      9 N9           5.9490    -3.5160     7.5410 n3         1 UNL      -0.811500
     10 N10          7.6140    -6.4750     8.5400 n          1 UNL      -0.558900
     11 N11         10.9410    -8.2750    11.0070 n          1 UNL      -0.547900
     12 N12          9.7380     3.0360     9.5910 nb         1 UNL      -0.673000
     13 N13         13.1410   -14.9450     9.9370 nh         1 UNL      -0.807100
     14 N14         14.1820   -14.8090    12.0260 nh         1 UNL      -0.807100
     15 C15          6.1100    -4.9920     7.4240 c3         1 UNL       0.182500
     16 C16          5.8930    -5.3160     5.9500 c3         1 UNL      -0.078400
     17 C17          6.1900    -4.0070     5.2380 c3         1 UNL      -0.084400
     18 C18          5.6270    -2.9700     6.1950 c3         1 UNL       0.217800
     19 C19          7.5070    -5.2690     7.8690 c          1 UNL       0.658100
     20 C20          6.3750    -2.5870    10.0030 ca         1 UNL      -0.372500
     21 C21          8.8640    -6.9860     9.0540 c3         1 UNL       0.086000
     22 C22          7.0000    -1.3430    10.0860 ca         1 UNL       0.159400
     23 C23          6.7800    -3.6280    10.8380 ca         1 UNL      -0.017000
     24 C24          8.9720    -6.8550    10.5710 c3         1 UNL      -0.128400
     25 C25          8.0310    -1.1400    11.0040 ca         1 UNL      -0.131300
     26 C26          7.8110    -3.4250    11.7560 ca         1 UNL      -0.158000
     27 C27          8.4360    -2.1810    11.8390 ca         1 UNL       0.096400
     28 C28         10.4020    -6.9460    11.0980 c3         1 UNL       0.083000
     29 C29          8.7070     0.1950    11.1000 c3         1 UNL       0.172700
     30 C30          7.9140     2.4340    10.9830 ca         1 UNL       0.038800
     31 C31         11.0980    -9.1000    12.1150 c2         1 UNL       0.658300
     32 C32          8.8450     3.3700    10.5410 ca         1 UNL       0.392600
     33 C33          8.8170     4.6570    11.1180 ca         1 UNL      -0.140300
     34 C34          6.9720     2.7460    11.9680 ca         1 UNL      -0.126000
     35 C35         11.6940   -10.4360    11.8570 cc         1 UNL      -0.046000
     36 C36          9.7540     5.6000    10.6730 ca         1 UNL      -0.020300
     37 C37          7.8700     4.9710    12.1080 ca         1 UNL      -0.112000
     38 C38          6.9510     4.0160    12.5310 ca         1 UNL      -0.121000
     39 C39         10.6260     3.9750     9.1900 ca         1 UNL       0.437600
     40 C40         10.6760     5.2590     9.6940 ca         1 UNL      -0.252300
     41 C41          9.8060     6.9910    11.2210 c3         1 UNL      -0.065800
     42 C42         10.9540   -11.4130    11.1900 cc         1 UNL      -0.085500
     43 C43         12.9930   -10.7140    12.2820 cc         1 UNL      -0.085500
     44 C44         11.5980     3.5640     8.1350 c3         1 UNL      -0.154400
     45 C45         11.5130   -12.6670    10.9480 cd         1 UNL      -0.095000
     46 C46         13.5520   -11.9690    12.0400 cd         1 UNL      -0.095000
     47 C47         12.8130   -12.9450    11.3730 cd         1 UNL      -0.168000
     48 C48         13.3960   -14.2530    11.1210 c2         1 UNL       0.508000
     49 H1           6.7990    -7.0110     8.6740 hn         1 UNL       0.351500
     50 H2          11.2100    -8.6160    10.1230 hn         1 UNL       0.340500
     51 H3          13.5070   -15.8490     9.8070 hn         1 UNL       0.481550
     52 H4          12.5960   -14.5280     9.2320 hn         1 UNL       0.481550
     53 H5          14.5770   -15.6950    11.8560 hn         1 UNL       0.481550
     54 H6          14.3710   -14.3390    12.8690 hn         1 UNL       0.481550
     55 H7           5.4310    -5.5790     8.0070 h1         1 UNL       0.080700
     56 H8           4.8830    -5.6240     5.7730 hc         1 UNL       0.062200
     57 H9           6.5110    -6.1200     5.6090 hc         1 UNL       0.062200
     58 H10          5.6980    -3.9640     4.2880 hc         1 UNL       0.055200
     59 H11          7.2290    -3.8670     5.0230 hc         1 UNL       0.055200
     60 H12          6.0960    -2.0200     6.0460 h1         1 UNL       0.060200
     61 H13          4.5790    -2.8060     6.0560 h1         1 UNL       0.060200
     62 H14          9.6680    -6.4400     8.6050 h1         1 UNL       0.060200
     63 H15          8.9130    -8.0270     8.8130 h1         1 UNL       0.060200
     64 H16          6.3180    -4.5490    10.7770 ha         1 UNL       0.166000
     65 H17          8.3970    -7.6390    11.0190 hc         1 UNL       0.065200
     66 H18          8.6060    -5.8830    10.8270 hc         1 UNL       0.065200
     67 H19          8.1100    -4.1950    12.3740 ha         1 UNL       0.162000
     68 H20         11.0210    -6.2850    10.5270 h1         1 UNL       0.071200
     69 H21         10.3850    -6.6740    12.1330 h1         1 UNL       0.071200
     70 H22          8.8320     0.4610    12.1280 h1         1 UNL       0.083200
     71 H23          9.6660     0.1480    10.6280 h1         1 UNL       0.083200
     72 H24          6.2930     2.0330    12.2760 ha         1 UNL       0.151000
     73 H25          7.8570     5.9150    12.5240 ha         1 UNL       0.140000
     74 H26          6.2570     4.2490    13.2580 ha         1 UNL       0.141000
     75 H27         11.3730     5.9400     9.3550 ha         1 UNL       0.146000
     76 H28          9.0440     7.1120    11.9620 hc         1 UNL       0.054367
     77 H29          9.6480     7.6930    10.4280 hc         1 UNL       0.054367
     78 H30         10.7650     7.1650    11.6640 hc         1 UNL       0.054367
     79 H31          9.9930   -11.2070    10.8760 ha         1 UNL       0.195000
     80 H32         13.5400    -9.9910    12.7750 ha         1 UNL       0.195000
     81 H33         11.4180     2.5450     7.8620 hc         1 UNL       0.056033
     82 H34         12.5950     3.6610     8.5120 hc         1 UNL       0.056033
     83 H35         11.4780     4.1900     7.2760 hc         1 UNL       0.056033
     84 H36         10.9660   -13.3900    10.4550 ha         1 UNL       0.149000
     85 H37         14.5140   -12.1740    12.3540 ha         1 UNL       0.149000
@<TRIPOS>BOND
     1     1    22 1   
     2     2    27 1   
     3     3     4 2   
     4     3     5 2   
     5     3     9 1   
     6     3    20 1   
     7     6    19 2   
     8     7    29 1   
     9     7    30 1   
    10     8    31 1   
    11     9    15 1   
    12     9    18 1   
    13    10    19 1   
    14    10    21 1   
    15    11    28 1   
    16    11    31 1   
    17    12    32 ar  
    18    12    39 ar  
    19    13    48 1   
    20    14    48 1   
    21    15    16 1   
    22    15    19 1   
    23    16    17 1   
    24    17    18 1   
    25    20    22 ar  
    26    20    23 ar  
    27    21    24 1   
    28    22    25 ar  
    29    23    26 ar  
    30    24    28 1   
    31    25    27 ar  
    32    25    29 1   
    33    26    27 ar  
    34    30    32 ar  
    35    30    34 ar  
    36    31    35 2   
    37    32    33 ar  
    38    33    36 ar  
    39    33    37 ar  
    40    34    38 ar  
    41    35    42 1   
    42    35    43 1   
    43    36    40 ar  
    44    36    41 1   
    45    37    38 ar  
    46    39    40 ar  
    47    39    44 1   
    48    42    45 2   
    49    43    46 2   
    50    45    47 1   
    51    46    47 1   
    52    47    48 2   
    53    10    49 1   
    54    11    50 1   
    55    13    51 1   
    56    13    52 1   
    57    14    53 1   
    58    14    54 1   
    59    15    55 1   
    60    16    56 1   
    61    16    57 1   
    62    17    58 1   
    63    17    59 1   
    64    18    60 1   
    65    18    61 1   
    66    21    62 1   
    67    21    63 1   
    68    23    64 1   
    69    24    65 1   
    70    24    66 1   
    71    26    67 1   
    72    28    68 1   
    73    28    69 1   
    74    29    70 1   
    75    29    71 1   
    76    34    72 1   
    77    37    73 1   
    78    38    74 1   
    79    40    75 1   
    80    41    76 1   
    81    41    77 1   
    82    41    78 1   
    83    42    79 1   
    84    43    80 1   
    85    44    81 1   
    86    44    82 1   
    87    44    83 1   
    88    45    84 1   
    89    46    85 1   
@<TRIPOS>SUBSTRUCTURE
     1 UNL         1 TEMP              0 ****  ****    0 ROOT
