@<TRIPOS>MOLECULE
9831652
   85    89     1     0     0
SMALL
bcc


@<TRIPOS>ATOM
      1 Cl1          7.5160    -0.7760     9.6170 cl         1 UNL      -0.061400
      2 Cl2          3.8830    -1.5950    13.5720 cl         1 UNL      -0.038400
      3 S3           5.6340    -2.4240     7.5960 sy         1 UNL       1.507200
      4 O4           4.4110    -2.7040     6.8680 o          1 UNL      -0.643300
      5 O5           6.5000    -1.3330     7.1890 o          1 UNL      -0.643300
      6 O6           5.9450    -4.4780    10.3840 o          1 UNL      -0.665100
      7 O7           6.0980     0.8670    12.4350 os         1 UNL      -0.320900
      8 O8           3.5310    -7.1720    12.3950 o          1 UNL      -0.596300
      9 N9           6.5500    -3.8500     7.7360 n3         1 UNL      -0.809500
     10 N10          6.6840    -6.5940     9.7570 n          1 UNL      -0.541900
     11 N11          4.1600    -9.2980    11.7140 n          1 UNL      -0.524900
     12 N12          8.6200     1.9760    12.4410 nb         1 UNL      -0.680000
     13 N13         -3.0380   -10.0250    11.2230 nh         1 UNL      -0.807100
     14 N14         -2.7530   -10.3710    13.5170 nh         1 UNL      -0.807100
     15 C15          5.8360    -5.1080     8.0900 c3         1 UNL       0.159500
     16 C16          6.4240    -6.1860     7.1870 c3         1 UNL      -0.089400
     17 C17          7.7880    -5.6380     6.8000 c3         1 UNL      -0.095400
     18 C18          7.5190    -4.1510     6.6470 c3         1 UNL       0.208800
     19 C19          6.1450    -5.3390     9.5320 c          1 UNL       0.647100
     20 C20          5.1970    -2.1570     9.2880 ca         1 UNL      -0.377500
     21 C21          7.0900    -7.0570    11.0640 c3         1 UNL       0.093000
     22 C22          6.0130    -1.4440    10.1660 ca         1 UNL       0.152400
     23 C23          3.9880    -2.6900     9.7350 ca         1 UNL      -0.011000
     24 C24          5.9170    -7.5760    11.8930 c3         1 UNL      -0.121400
     25 C25          5.6190    -1.2630    11.4920 ca         1 UNL      -0.115300
     26 C26          3.5940    -2.5090    11.0610 ca         1 UNL      -0.159000
     27 C27          4.4100    -1.7950    11.9400 ca         1 UNL       0.105400
     28 C28          5.5710    -9.0390    11.6240 c3         1 UNL       0.076000
     29 C29          6.4910    -0.4970    12.4420 c3         1 UNL       0.176700
     30 C30          6.5260     1.6310    11.3800 ca         1 UNL       0.048800
     31 C31          3.2420    -8.3280    12.0980 c2         1 UNL       0.651300
     32 C32          7.8030     2.1860    11.3920 ca         1 UNL       0.381600
     33 C33          8.1990     2.9640    10.2840 ca         1 UNL      -0.135300
     34 C34          5.6520     1.8290    10.3080 ca         1 UNL      -0.129000
     35 C35          1.8220    -8.7620    12.1660 cc         1 UNL      -0.054000
     36 C36          9.4840     3.5240    10.2970 ca         1 UNL      -0.020300
     37 C37          7.3200     3.1640     9.2060 ca         1 UNL      -0.120000
     38 C38          6.0490     2.5960     9.2200 ca         1 UNL      -0.115000
     39 C39          9.8520     2.5340    12.4150 ca         1 UNL       0.436600
     40 C40         10.3280     3.3090    11.3770 ca         1 UNL      -0.252300
     41 C41          9.9990     4.3630     9.1700 c3         1 UNL      -0.065800
     42 C42          1.5120   -10.0910    12.4550 cc         1 UNL      -0.087000
     43 C43          0.8000    -7.8400    11.9410 cc         1 UNL      -0.087000
     44 C44         10.7250     2.2760    13.5970 c3         1 UNL      -0.154400
     45 C45          0.1800   -10.4980    12.5180 cd         1 UNL      -0.093000
     46 C46         -0.5330    -8.2480    12.0040 cd         1 UNL      -0.093000
     47 C47         -0.8430    -9.5770    12.2930 cd         1 UNL      -0.167000
     48 C48         -2.2320   -10.0010    12.3600 c2         1 UNL       0.508000
     49 H1           6.7960    -7.2010     8.9900 hn         1 UNL       0.322500
     50 H2           3.8310   -10.2000    11.4940 hn         1 UNL       0.312500
     51 H3          -3.4370    -9.1900    10.8850 hn         1 UNL       0.481800
     52 H4          -3.2090   -10.8750    10.7590 hn         1 UNL       0.481800
     53 H5          -3.6930   -10.6580    13.5640 hn         1 UNL       0.481800
     54 H6          -2.2000   -10.3580    14.3310 hn         1 UNL       0.481800
     55 H7           4.7750    -5.0900     7.9560 h1         1 UNL       0.102700
     56 H8           5.8130    -6.3320     6.3210 hc         1 UNL       0.061700
     57 H9           6.4850    -7.1390     7.6700 hc         1 UNL       0.061700
     58 H10          8.1290    -6.0660     5.8800 hc         1 UNL       0.062700
     59 H11          8.5530    -5.8600     7.5150 hc         1 UNL       0.062700
     60 H12          8.4200    -3.5860     6.7710 h1         1 UNL       0.065200
     61 H13          7.1440    -3.8960     5.6780 h1         1 UNL       0.065200
     62 H14          7.5470    -6.2450    11.5890 h1         1 UNL       0.050200
     63 H15          7.7720    -7.8700    10.9230 h1         1 UNL       0.050200
     64 H16          3.3840    -3.2170     9.0860 ha         1 UNL       0.172000
     65 H17          5.0570    -6.9800    11.6700 hc         1 UNL       0.073200
     66 H18          6.2070    -7.5080    12.9210 hc         1 UNL       0.073200
     67 H19          2.7000    -2.9030    11.3930 ha         1 UNL       0.161000
     68 H20          5.9050    -9.2950    10.6410 h1         1 UNL       0.073700
     69 H21          6.0580    -9.6300    12.3720 h1         1 UNL       0.073700
     70 H22          6.3820    -0.8960    13.4280 h1         1 UNL       0.076200
     71 H23          7.5130    -0.5790    12.1380 h1         1 UNL       0.076200
     72 H24          4.7110     1.4050    10.3250 ha         1 UNL       0.154000
     73 H25          7.6180     3.7340     8.4000 ha         1 UNL       0.140000
     74 H26          5.4060     2.7440     8.4270 ha         1 UNL       0.142000
     75 H27         11.2770     3.7130    11.4030 ha         1 UNL       0.147000
     76 H28          9.2470     4.4440     8.4130 hc         1 UNL       0.054700
     77 H29         10.8740     3.9080     8.7570 hc         1 UNL       0.054700
     78 H30         10.2430     5.3390     9.5350 hc         1 UNL       0.054700
     79 H31          2.2690   -10.7730    12.6220 ha         1 UNL       0.194000
     80 H32          1.0300    -6.8570    11.7270 ha         1 UNL       0.194000
     81 H33         10.2010     1.6620    14.3000 hc         1 UNL       0.056033
     82 H34         10.9840     3.2060    14.0590 hc         1 UNL       0.056033
     83 H35         11.6160     1.7740    13.2800 hc         1 UNL       0.056033
     84 H36         -0.0500   -11.4820    12.7320 ha         1 UNL       0.151500
     85 H37         -1.2890    -7.5660    11.8370 ha         1 UNL       0.151500
@<TRIPOS>BOND
     1     1    22 1   
     2     2    27 1   
     3     3     4 2   
     4     3     5 2   
     5     3     9 1   
     6     3    20 1   
     7     6    19 2   
     8     7    29 1   
     9     7    30 1   
    10     8    31 1   
    11     9    15 1   
    12     9    18 1   
    13    10    19 1   
    14    10    21 1   
    15    11    28 1   
    16    11    31 1   
    17    12    32 ar  
    18    12    39 ar  
    19    13    48 1   
    20    14    48 1   
    21    15    16 1   
    22    15    19 1   
    23    16    17 1   
    24    17    18 1   
    25    20    22 ar  
    26    20    23 ar  
    27    21    24 1   
    28    22    25 ar  
    29    23    26 ar  
    30    24    28 1   
    31    25    27 ar  
    32    25    29 1   
    33    26    27 ar  
    34    30    32 ar  
    35    30    34 ar  
    36    31    35 2   
    37    32    33 ar  
    38    33    36 ar  
    39    33    37 ar  
    40    34    38 ar  
    41    35    42 1   
    42    35    43 1   
    43    36    40 ar  
    44    36    41 1   
    45    37    38 ar  
    46    39    40 ar  
    47    39    44 1   
    48    42    45 2   
    49    43    46 2   
    50    45    47 1   
    51    46    47 1   
    52    47    48 2   
    53    10    49 1   
    54    11    50 1   
    55    13    51 1   
    56    13    52 1   
    57    14    53 1   
    58    14    54 1   
    59    15    55 1   
    60    16    56 1   
    61    16    57 1   
    62    17    58 1   
    63    17    59 1   
    64    18    60 1   
    65    18    61 1   
    66    21    62 1   
    67    21    63 1   
    68    23    64 1   
    69    24    65 1   
    70    24    66 1   
    71    26    67 1   
    72    28    68 1   
    73    28    69 1   
    74    29    70 1   
    75    29    71 1   
    76    34    72 1   
    77    37    73 1   
    78    38    74 1   
    79    40    75 1   
    80    41    76 1   
    81    41    77 1   
    82    41    78 1   
    83    42    79 1   
    84    43    80 1   
    85    44    81 1   
    86    44    82 1   
    87    44    83 1   
    88    45    84 1   
    89    46    85 1   
@<TRIPOS>SUBSTRUCTURE
     1 UNL         1 TEMP              0 ****  ****    0 ROOT
