@<TRIPOS>MOLECULE
9895193
   91    93     1     0     0
SMALL
bcc


@<TRIPOS>ATOM
      1 S1           6.1980    -1.2420    10.0570 sy         1 UNL       1.518200
      2 O2           5.6040    -0.7690     8.8220 o          1 UNL      -0.669800
      3 O3           7.6290    -1.4640    10.1410 o          1 UNL      -0.669800
      4 O4           3.9610    -5.4450    10.7740 o          1 UNL      -0.647100
      5 O5           9.9760    -8.6100    11.5970 os         1 UNL      -0.441900
      6 O6          11.0160    -6.5810    11.7610 o          1 UNL      -0.573000
      7 N7           6.2670    -5.4820    11.0500 n          1 UNL      -0.458800
      8 N8           5.3860    -2.6490    10.5690 n3         1 UNL      -0.916100
      9 N9           8.8170    -6.7050    11.0210 n          1 UNL      -0.407800
     10 N10          5.6540    -6.5800     3.1170 nh         1 UNL      -0.472600
     11 N11          7.1810    -7.1840     4.7790 nh         1 UNL      -0.456700
     12 C12          5.7790    -0.0970    11.3370 ca         1 UNL      -0.394500
     13 C13          5.1900    -3.7710     9.6330 c3         1 UNL       0.195500
     14 C14          6.2160     1.2250    11.2610 ca         1 UNL       0.052200
     15 C15          5.0110    -0.5160    12.4240 ca         1 UNL       0.052200
     16 C16          6.3840    -6.9120    11.3460 c3         1 UNL       0.053000
     17 C17          7.4530    -4.6880    11.3990 c3         1 UNL       0.053000
     18 C18          5.0760    -4.9730    10.5360 c          1 UNL       0.648100
     19 C19          7.0380     1.7110    10.1110 c3         1 UNL      -0.062900
     20 C20          4.5260    -1.9250    12.5410 c3         1 UNL      -0.062900
     21 C21          7.6300    -7.5020    10.6910 c3         1 UNL       0.058500
     22 C22          8.7030    -5.2730    10.7450 c3         1 UNL       0.058500
     23 C23          5.1180     1.7090    13.3580 ca         1 UNL       0.015700
     24 C24          6.3830    -3.9190     8.7010 c3         1 UNL      -0.065100
     25 C25          5.8860     2.1280    12.2720 ca         1 UNL      -0.162000
     26 C26          4.6810     0.3860    13.4340 ca         1 UNL      -0.162000
     27 C27          4.7660     2.6740    14.4390 c3         1 UNL      -0.038400
     28 C28          6.2850     2.7370     9.2450 c3         1 UNL      -0.087600
     29 C29          8.3890     2.2950    10.5620 c3         1 UNL      -0.087600
     30 C30          4.9600    -2.5860    13.8620 c3         1 UNL      -0.087600
     31 C31          3.0000    -2.0350    12.3740 c3         1 UNL      -0.087600
     32 C32          5.9700    -3.9900     7.2510 ca         1 UNL      -0.073300
     33 C33          4.0060     3.9030    13.9070 c3         1 UNL      -0.090600
     34 C34          5.9970     3.1300    15.2460 c3         1 UNL      -0.090600
     35 C35         10.0190    -7.2450    11.4840 c          1 UNL       0.721100
     36 C36          6.3040    -5.1060     6.4840 ca         1 UNL      -0.082000
     37 C37          5.2540    -2.9390     6.6790 ca         1 UNL      -0.029000
     38 C38          5.9210    -5.1710     5.1450 ca         1 UNL      -0.264900
     39 C39          4.8710    -3.0040     5.3390 ca         1 UNL      -0.123000
     40 C40          5.2040    -4.1200     4.5720 ca         1 UNL      -0.085000
     41 C41         10.8680    -9.1930    12.5550 c3         1 UNL       0.149400
     42 C42          6.2680    -6.3340     4.3440 ce         1 UNL       0.527400
     43 C43         11.3320   -10.5380    12.0410 c3         1 UNL      -0.130100
     44 H1           4.4590    -2.3570    10.8770 hn         1 UNL       0.454800
     45 H2           5.0110    -5.9310     2.7500 hn         1 UNL       0.324450
     46 H3           5.8630    -7.4020     2.6170 hn         1 UNL       0.324450
     47 H4           7.4180    -7.9720     4.2390 hn         1 UNL       0.324450
     48 H5           7.6240    -7.0300     5.6450 hn         1 UNL       0.324450
     49 H6           4.3360    -3.6350     9.0030 h1         1 UNL       0.076700
     50 H7           5.5190    -7.4190    10.9740 h1         1 UNL       0.069700
     51 H8           6.4630    -7.0370    12.4060 h1         1 UNL       0.069700
     52 H9           7.5780    -4.6920    12.4610 h1         1 UNL       0.069700
     53 H10          7.3150    -3.6880    11.0450 h1         1 UNL       0.069700
     54 H11          7.2310     0.8460     9.5120 hc         1 UNL       0.081200
     55 H12          4.9900    -2.4550    11.7350 hc         1 UNL       0.081200
     56 H13          7.7700    -8.5040    11.0420 h1         1 UNL       0.082700
     57 H14          7.4960    -7.4970     9.6300 h1         1 UNL       0.082700
     58 H15          8.6460    -5.1240     9.6870 h1         1 UNL       0.082700
     59 H16          9.5620    -4.7780    11.1480 h1         1 UNL       0.082700
     60 H17          6.9080    -4.8170     8.9540 hc         1 UNL       0.083200
     61 H18          7.0050    -3.0570     8.8240 hc         1 UNL       0.083200
     62 H19          6.2100     3.1060    12.2150 ha         1 UNL       0.151000
     63 H20          4.1130     0.0760    14.2380 ha         1 UNL       0.151000
     64 H21          4.1150     2.1370    15.0970 hc         1 UNL       0.061700
     65 H22          6.0800     3.6120     9.8250 hc         1 UNL       0.042617
     66 H23          5.3640     2.3100     8.9070 hc         1 UNL       0.042617
     67 H24          6.8870     3.0010     8.4010 hc         1 UNL       0.042617
     68 H25          8.2190     3.1630    11.1640 hc         1 UNL       0.042617
     69 H26          8.9650     2.5650     9.7020 hc         1 UNL       0.042617
     70 H27          8.9210     1.5630    11.1330 hc         1 UNL       0.042617
     71 H28          4.5070    -2.0720    14.6830 hc         1 UNL       0.042617
     72 H29          6.0250    -2.5370    13.9530 hc         1 UNL       0.042617
     73 H30          4.6480    -3.6100    13.8670 hc         1 UNL       0.042617
     74 H31          2.5160    -1.5120    13.1720 hc         1 UNL       0.042617
     75 H32          2.7120    -3.0660    12.3980 hc         1 UNL       0.042617
     76 H33          2.7110    -1.6060    11.4380 hc         1 UNL       0.042617
     77 H34          4.6410     4.4560    13.2450 hc         1 UNL       0.042867
     78 H35          3.7170     4.5270    14.7270 hc         1 UNL       0.042867
     79 H36          3.1330     3.5810    13.3780 hc         1 UNL       0.042867
     80 H37          6.6630     3.6700    14.6060 hc         1 UNL       0.042867
     81 H38          6.5010     2.2730    15.6430 hc         1 UNL       0.042867
     82 H39          5.6830     3.7630    16.0490 hc         1 UNL       0.042867
     83 H40          6.8340    -5.8840     6.9080 ha         1 UNL       0.171000
     84 H41          5.0070    -2.1130     7.2470 ha         1 UNL       0.193000
     85 H42          4.3410    -2.2260     4.9160 ha         1 UNL       0.167000
     86 H43          4.9210    -4.1680     3.5810 ha         1 UNL       0.143000
     87 H44         10.3590    -9.3210    13.4870 h1         1 UNL       0.068200
     88 H45         11.7110    -8.5510    12.7000 h1         1 UNL       0.068200
     89 H46         10.4860   -11.1770    11.8970 hc         1 UNL       0.055033
     90 H47         11.9970   -10.9820    12.7520 hc         1 UNL       0.055033
     91 H48         11.8430   -10.4080    11.1100 hc         1 UNL       0.055033
@<TRIPOS>BOND
     1     1     2 2   
     2     1     3 2   
     3     1     8 1   
     4     1    12 1   
     5     4    18 2   
     6     5    35 1   
     7     5    41 1   
     8     6    35 2   
     9     7    16 1   
    10     7    17 1   
    11     7    18 1   
    12     8    13 1   
    13     9    21 1   
    14     9    22 1   
    15     9    35 1   
    16    10    42 2   
    17    11    42 1   
    18    12    14 ar  
    19    12    15 ar  
    20    13    18 1   
    21    13    24 1   
    22    14    19 1   
    23    14    25 ar  
    24    15    20 1   
    25    15    26 ar  
    26    16    21 1   
    27    17    22 1   
    28    19    28 1   
    29    19    29 1   
    30    20    30 1   
    31    20    31 1   
    32    23    25 ar  
    33    23    26 ar  
    34    23    27 1   
    35    24    32 1   
    36    27    33 1   
    37    27    34 1   
    38    32    36 ar  
    39    32    37 ar  
    40    36    38 ar  
    41    37    39 ar  
    42    38    40 ar  
    43    38    42 1   
    44    39    40 ar  
    45    41    43 1   
    46     8    44 1   
    47    10    45 1   
    48    10    46 1   
    49    11    47 1   
    50    11    48 1   
    51    13    49 1   
    52    16    50 1   
    53    16    51 1   
    54    17    52 1   
    55    17    53 1   
    56    19    54 1   
    57    20    55 1   
    58    21    56 1   
    59    21    57 1   
    60    22    58 1   
    61    22    59 1   
    62    24    60 1   
    63    24    61 1   
    64    25    62 1   
    65    26    63 1   
    66    27    64 1   
    67    28    65 1   
    68    28    66 1   
    69    28    67 1   
    70    29    68 1   
    71    29    69 1   
    72    29    70 1   
    73    30    71 1   
    74    30    72 1   
    75    30    73 1   
    76    31    74 1   
    77    31    75 1   
    78    31    76 1   
    79    33    77 1   
    80    33    78 1   
    81    33    79 1   
    82    34    80 1   
    83    34    81 1   
    84    34    82 1   
    85    36    83 1   
    86    37    84 1   
    87    39    85 1   
    88    40    86 1   
    89    41    87 1   
    90    41    88 1   
    91    43    89 1   
    92    43    90 1   
    93    43    91 1   
@<TRIPOS>SUBSTRUCTURE
     1 UNL         1 TEMP              0 ****  ****    0 ROOT
