@<TRIPOS>MOLECULE
9895193
   91    93     1     0     0
SMALL
bcc


@<TRIPOS>ATOM
      1 S1           7.7810     0.0140    11.1240 sy         1 UNL       1.518200
      2 O2           8.6970    -1.0800    11.3810 o          1 UNL      -0.661800
      3 O3           6.8320     0.4260    12.1410 o          1 UNL      -0.661800
      4 O4           4.6440    -0.4030    10.8680 o          1 UNL      -0.710100
      5 O5           2.0140    -6.5860    12.1800 os         1 UNL      -0.447900
      6 O6           4.1040    -7.5000    12.0380 o          1 UNL      -0.562000
      7 N7           4.7910    -2.7030    11.1540 n          1 UNL      -0.440800
      8 N8           6.9440    -0.2830     9.6710 n3         1 UNL      -0.908100
      9 N9           3.7350    -5.3220    11.3180 n          1 UNL      -0.417800
     10 N10          4.4600    -4.7030     4.6950 nh         1 UNL      -0.472100
     11 N11          5.8580    -2.8520     4.4130 nh         1 UNL      -0.456200
     12 C12          8.7380     1.4400    10.7040 ca         1 UNL      -0.391500
     13 C13          6.2000    -1.5430     9.4910 c3         1 UNL       0.214500
     14 C14         10.1160     1.4430    10.9210 ca         1 UNL       0.047700
     15 C15          8.1150     2.5610    10.1560 ca         1 UNL       0.047700
     16 C16          3.4320    -2.9020    11.6640 c3         1 UNL       0.046000
     17 C17          5.6990    -3.8350    11.3820 c3         1 UNL       0.046000
     18 C18          5.1430    -1.4900    10.5650 c          1 UNL       0.641100
     19 C19         10.8180     0.2590    11.5040 c3         1 UNL      -0.061400
     20 C20          6.6420     2.5950     9.9110 c3         1 UNL      -0.061400
     21 C21          2.8260    -4.1890    11.1090 c3         1 UNL       0.063000
     22 C22          5.1000    -5.1250    10.8280 c3         1 UNL       0.063000
     23 C23         10.2480     3.6900    10.0440 ca         1 UNL       0.012700
     24 C24          7.1060    -2.7470     9.6990 c3         1 UNL      -0.065100
     25 C25         10.8710     2.5690    10.5910 ca         1 UNL      -0.161500
     26 C26          8.8700     3.6860     9.8260 ca         1 UNL      -0.161500
     27 C27         11.0550     4.8940     9.6910 c3         1 UNL      -0.037400
     28 C28         11.7120    -0.4560    10.4750 c3         1 UNL      -0.086850
     29 C29         11.6400     0.6220    12.7530 c3         1 UNL      -0.086850
     30 C30          5.9580     3.7840    10.6100 c3         1 UNL      -0.086850
     31 C31          6.2970     2.5990     8.4110 c3         1 UNL      -0.086850
     32 C32          7.0610    -3.7030     8.5320 ca         1 UNL      -0.071300
     33 C33         10.6020     6.1510    10.4580 c3         1 UNL      -0.090600
     34 C34         11.0580     5.1780     8.1770 c3         1 UNL      -0.090600
     35 C35          3.3460    -6.5490    11.8610 c          1 UNL       0.724100
     36 C36          6.3320    -3.3760     7.3890 ca         1 UNL      -0.070000
     37 C37          7.7500    -4.9150     8.5980 ca         1 UNL      -0.059000
     38 C38          6.2920    -4.2600     6.3110 ca         1 UNL      -0.249900
     39 C39          7.7100    -5.7990     7.5190 ca         1 UNL      -0.121000
     40 C40          6.9810    -5.4710     6.3760 ca         1 UNL      -0.082000
     41 C41          1.5420    -7.7980    12.7800 c3         1 UNL       0.149400
     42 C42          5.5320    -3.9200     5.1190 ce         1 UNL       0.516400
     43 C43          0.2460    -8.2060    12.1130 c3         1 UNL      -0.104100
     44 H1           7.6330    -0.2390     8.9210 hn         1 UNL       0.448800
     45 H2           4.3700    -5.6300     5.0140 hn         1 UNL       0.330450
     46 H3           3.7920    -4.3290     4.0750 hn         1 UNL       0.330450
     47 H4           5.3450    -2.6200     3.6050 hn         1 UNL       0.330450
     48 H5           6.6140    -2.2880     4.6940 hn         1 UNL       0.330450
     49 H6           5.7940    -1.6430     8.5060 h1         1 UNL       0.078700
     50 H7           2.8220    -2.0730    11.3700 h1         1 UNL       0.078450
     51 H8           3.4730    -2.9760    12.7300 h1         1 UNL       0.078450
     52 H9           5.8640    -3.9470    12.4340 h1         1 UNL       0.078450
     53 H10          6.6240    -3.6410    10.8810 h1         1 UNL       0.078450
     54 H11         10.0420    -0.4160    11.7990 hc         1 UNL       0.081200
     55 H12          6.2600     1.6910    10.3390 hc         1 UNL       0.081200
     56 H13          1.9000    -4.3850    11.6080 h1         1 UNL       0.078700
     57 H14          2.6640    -4.0680    10.0590 h1         1 UNL       0.078700
     58 H15          5.0840    -5.0730     9.7600 h1         1 UNL       0.078700
     59 H16          5.7020    -5.9480    11.1540 h1         1 UNL       0.078700
     60 H17          6.7940    -3.2650    10.5810 hc         1 UNL       0.098200
     61 H18          8.1100    -2.3890     9.7920 hc         1 UNL       0.098200
     62 H19         11.8900     2.5710    10.7520 ha         1 UNL       0.149500
     63 H20          8.4100     4.5160     9.4210 ha         1 UNL       0.149500
     64 H21         12.0560     4.6610     9.9910 hc         1 UNL       0.060700
     65 H22         12.4960     0.2030    10.1650 hc         1 UNL       0.042450
     66 H23         11.1250    -0.7360     9.6260 hc         1 UNL       0.042450
     67 H24         12.1370    -1.3310    10.9200 hc         1 UNL       0.042450
     68 H25         12.4230     1.2990    12.4800 hc         1 UNL       0.042450
     69 H26         12.0660    -0.2660    13.1700 hc         1 UNL       0.042450
     70 H27         11.0040     1.0870    13.4770 hc         1 UNL       0.042450
     71 H28          6.3260     4.7000    10.1970 hc         1 UNL       0.042450
     72 H29          6.1730     3.7530    11.6580 hc         1 UNL       0.042450
     73 H30          4.9000     3.7250    10.4610 hc         1 UNL       0.042450
     74 H31          6.6710     3.4950     7.9620 hc         1 UNL       0.042450
     75 H32          5.2350     2.5540     8.2890 hc         1 UNL       0.042450
     76 H33          6.7470     1.7500     7.9390 hc         1 UNL       0.042450
     77 H34          9.6020     6.4020    10.1730 hc         1 UNL       0.042700
     78 H35         11.2550     6.9660    10.2240 hc         1 UNL       0.042700
     79 H36         10.6360     5.9590    11.5100 hc         1 UNL       0.042700
     80 H37         10.0650     5.4140     7.8570 hc         1 UNL       0.042700
     81 H38         11.4070     4.3140     7.6530 hc         1 UNL       0.042700
     82 H39         11.7050     6.0050     7.9710 hc         1 UNL       0.042700
     83 H40          5.8230    -2.4800     7.3410 ha         1 UNL       0.162000
     84 H41          8.2890    -5.1570     9.4430 ha         1 UNL       0.165000
     85 H42          8.2190    -6.6950     7.5680 ha         1 UNL       0.165000
     86 H43          6.9510    -6.1250     5.5790 ha         1 UNL       0.146000
     87 H44          1.3730    -7.6380    13.8250 h1         1 UNL       0.061200
     88 H45          2.2720    -8.5700    12.6560 h1         1 UNL       0.061200
     89 H46         -0.4800    -7.4310    12.2390 hc         1 UNL       0.051367
     90 H47         -0.1150    -9.1100    12.5590 hc         1 UNL       0.051367
     91 H48          0.4180    -8.3680    11.0690 hc         1 UNL       0.051367
@<TRIPOS>BOND
     1     1     2 2   
     2     1     3 2   
     3     1     8 1   
     4     1    12 1   
     5     4    18 2   
     6     5    35 1   
     7     5    41 1   
     8     6    35 2   
     9     7    16 1   
    10     7    17 1   
    11     7    18 1   
    12     8    13 1   
    13     9    21 1   
    14     9    22 1   
    15     9    35 1   
    16    10    42 2   
    17    11    42 1   
    18    12    14 ar  
    19    12    15 ar  
    20    13    18 1   
    21    13    24 1   
    22    14    19 1   
    23    14    25 ar  
    24    15    20 1   
    25    15    26 ar  
    26    16    21 1   
    27    17    22 1   
    28    19    28 1   
    29    19    29 1   
    30    20    30 1   
    31    20    31 1   
    32    23    25 ar  
    33    23    26 ar  
    34    23    27 1   
    35    24    32 1   
    36    27    33 1   
    37    27    34 1   
    38    32    36 ar  
    39    32    37 ar  
    40    36    38 ar  
    41    37    39 ar  
    42    38    40 ar  
    43    38    42 1   
    44    39    40 ar  
    45    41    43 1   
    46     8    44 1   
    47    10    45 1   
    48    10    46 1   
    49    11    47 1   
    50    11    48 1   
    51    13    49 1   
    52    16    50 1   
    53    16    51 1   
    54    17    52 1   
    55    17    53 1   
    56    19    54 1   
    57    20    55 1   
    58    21    56 1   
    59    21    57 1   
    60    22    58 1   
    61    22    59 1   
    62    24    60 1   
    63    24    61 1   
    64    25    62 1   
    65    26    63 1   
    66    27    64 1   
    67    28    65 1   
    68    28    66 1   
    69    28    67 1   
    70    29    68 1   
    71    29    69 1   
    72    29    70 1   
    73    30    71 1   
    74    30    72 1   
    75    30    73 1   
    76    31    74 1   
    77    31    75 1   
    78    31    76 1   
    79    33    77 1   
    80    33    78 1   
    81    33    79 1   
    82    34    80 1   
    83    34    81 1   
    84    34    82 1   
    85    36    83 1   
    86    37    84 1   
    87    39    85 1   
    88    40    86 1   
    89    41    87 1   
    90    41    88 1   
    91    43    89 1   
    92    43    90 1   
    93    43    91 1   
@<TRIPOS>SUBSTRUCTURE
     1 UNL         1 TEMP              0 ****  ****    0 ROOT
