@<TRIPOS>MOLECULE
5496659
   60    62     1     0     0
SMALL
bcc


@<TRIPOS>ATOM
      1 O1           8.2930    -3.9910    11.1890 os         1 UNL      -0.438900
      2 O2           7.6580    -6.1730    11.5820 o          1 UNL      -0.546000
      3 O3           4.5550    -1.3460     9.1090 o          1 UNL      -0.648100
      4 O4          10.5930     6.9170    11.1710 o          1 UNL      -0.540700
      5 N5           6.3310    -2.5620     9.9730 n          1 UNL      -0.566900
      6 N6           5.7500    -6.5720     2.8400 nh         1 UNL      -0.471100
      7 N7           6.5320    -7.9150     4.5860 nh         1 UNL      -0.455200
      8 N8           9.9530     5.8350    10.9690 na         1 UNL       0.542300
      9 C9           6.8130    -4.9800     9.6320 c3         1 UNL      -0.122700
     10 C10          5.7480    -3.8700     9.7830 c3         1 UNL       0.119700
     11 C11          7.7600    -4.7140     8.4430 c3         1 UNL      -0.055100
     12 C12          4.7520    -4.1700    10.9030 c3         1 UNL      -0.116100
     13 C13          7.0260    -4.5910     7.1270 ca         1 UNL      -0.065300
     14 C14          7.6240    -5.1480    10.9130 c          1 UNL       0.632100
     15 C15          6.9460    -5.6870     6.2680 ca         1 UNL      -0.087000
     16 C16          5.6740    -1.3960     9.6140 c          1 UNL       0.688700
     17 C17          6.4300    -3.3810     6.7720 ca         1 UNL      -0.057000
     18 C18          6.2710    -5.5720     5.0530 ca         1 UNL      -0.263900
     19 C19          6.4200    -0.1330     9.8510 ca         1 UNL      -0.152600
     20 C20          5.7550    -3.2660     5.5570 ca         1 UNL      -0.119000
     21 C21          5.6750    -4.3620     4.6970 ca         1 UNL      -0.087000
     22 C22          6.0130     1.0460     9.2250 ca         1 UNL      -0.083500
     23 C23          7.5270    -0.1250    10.6990 ca         1 UNL      -0.083500
     24 C24          7.8210     2.2380    10.2960 cp         1 UNL       0.010000
     25 C25          6.1890    -6.7140     4.1550 ce         1 UNL       0.524400
     26 C26          9.4760    -4.1370    11.9810 c3         1 UNL       0.122700
     27 C27          6.7130     2.2310     9.4470 ca         1 UNL      -0.130500
     28 C28          8.2270     1.0600    10.9210 ca         1 UNL      -0.130500
     29 C29          8.5490     3.4670    10.5260 cp         1 UNL      -0.102000
     30 C30          9.3230     4.0170     9.5100 ca         1 UNL      -0.069000
     31 C31          8.4760     4.0990    11.7620 ca         1 UNL      -0.069000
     32 C32         10.0190     5.1990     9.7440 ca         1 UNL      -0.223800
     33 C33          9.1810     5.2800    11.9710 ca         1 UNL      -0.223800
     34 H1           7.2280    -2.4970    10.3730 hn         1 UNL       0.332500
     35 H2           5.2810    -7.3150     2.3950 hn         1 UNL       0.325950
     36 H3           5.9080    -5.7290     2.3560 hn         1 UNL       0.325950
     37 H4           6.4770    -8.6890     3.9800 hn         1 UNL       0.325950
     38 H5           6.8420    -8.0360     5.5120 hn         1 UNL       0.325950
     39 H6           6.2830    -5.8880     9.4380 hc         1 UNL       0.079700
     40 H7           5.2140    -3.8590     8.8560 h1         1 UNL       0.078700
     41 H8           8.4550    -5.5240     8.3720 hc         1 UNL       0.090700
     42 H9           8.2530    -3.7830     8.6250 hc         1 UNL       0.090700
     43 H10          5.2660    -4.1860    11.8410 hc         1 UNL       0.054033
     44 H11          4.2970    -5.1230    10.7290 hc         1 UNL       0.054033
     45 H12          3.9980    -3.4120    10.9220 hc         1 UNL       0.054033
     46 H13          7.3870    -6.5820     6.5310 ha         1 UNL       0.151000
     47 H14          6.4890    -2.5700     7.4080 ha         1 UNL       0.206000
     48 H15          5.3140    -2.3710     5.2940 ha         1 UNL       0.169000
     49 H16          5.1760    -4.2770     3.7980 ha         1 UNL       0.146000
     50 H17          5.1940     1.0400     8.5970 ha         1 UNL       0.146000
     51 H18          7.8280    -0.9970    11.1620 ha         1 UNL       0.146000
     52 H19          9.9210    -3.1770    12.1390 h1         1 UNL       0.060367
     53 H20         10.1700    -4.7730    11.4720 h1         1 UNL       0.060367
     54 H21          9.2210    -4.5720    12.9250 h1         1 UNL       0.060367
     55 H22          6.4130     3.1030     8.9840 ha         1 UNL       0.146000
     56 H23          9.0470     1.0650    11.5490 ha         1 UNL       0.146000
     57 H24          9.3820     3.5530     8.5910 ha         1 UNL       0.156000
     58 H25          7.9020     3.6950    12.5200 ha         1 UNL       0.156000
     59 H26         10.5940     5.6070     8.9900 h4         1 UNL       0.192000
     60 H27          9.1260     5.7490    12.8880 h4         1 UNL       0.192000
@<TRIPOS>BOND
     1     1    14 1   
     2     1    26 1   
     3     2    14 2   
     4     3    16 2   
     5     4     8 2   
     6     5    10 1   
     7     5    16 1   
     8     6    25 2   
     9     7    25 1   
    10     8    32 1   
    11     8    33 2   
    12     9    10 1   
    13     9    11 1   
    14     9    14 1   
    15    10    12 1   
    16    11    13 1   
    17    13    15 ar  
    18    13    17 ar  
    19    15    18 ar  
    20    16    19 1   
    21    17    20 ar  
    22    18    21 ar  
    23    18    25 1   
    24    19    22 ar  
    25    19    23 ar  
    26    20    21 ar  
    27    22    27 ar  
    28    23    28 ar  
    29    24    27 ar  
    30    24    28 ar  
    31    24    29 1   
    32    29    30 ar  
    33    29    31 ar  
    34    30    32 ar  
    35    31    33 ar  
    36     5    34 1   
    37     6    35 1   
    38     6    36 1   
    39     7    37 1   
    40     7    38 1   
    41     9    39 1   
    42    10    40 1   
    43    11    41 1   
    44    11    42 1   
    45    12    43 1   
    46    12    44 1   
    47    12    45 1   
    48    15    46 1   
    49    17    47 1   
    50    20    48 1   
    51    21    49 1   
    52    22    50 1   
    53    23    51 1   
    54    26    52 1   
    55    26    53 1   
    56    26    54 1   
    57    27    55 1   
    58    28    56 1   
    59    30    57 1   
    60    31    58 1   
    61    32    59 1   
    62    33    60 1   
@<TRIPOS>SUBSTRUCTURE
     1 UNL         1 TEMP              0 ****  ****    0 ROOT
