@<TRIPOS>MOLECULE
66000
   48    50     1     0     0
SMALL
bcc


@<TRIPOS>ATOM
      1 O1           5.7210     0.4900    10.8600 os         1 UNL      -0.340900
      2 O2           8.6660     5.0720    10.4460 o          1 UNL      -0.630500
      3 O3          11.7080     0.9960    11.6620 o          1 UNL      -0.872800
      4 O4          10.0140     0.9680    13.1820 o          1 UNL      -0.872800
      5 N5           7.2870     3.4630     9.4530 n          1 UNL      -0.588900
      6 N6           5.9840    -6.5220     2.8700 nh         1 UNL      -0.455600
      7 N7           6.7630    -7.9280     4.5660 nh         1 UNL      -0.439700
      8 C8           8.6710     2.7470    11.1990 c3         1 UNL      -0.123700
      9 C9           7.0130     2.0540     9.5990 c3         1 UNL       0.069700
     10 C10          8.2470     1.5500    10.3410 c3         1 UNL      -0.086400
     11 C11          8.2530     3.9280    10.3420 c          1 UNL       0.697500
     12 C12         10.1520     2.7530    11.5270 c3         1 UNL      -0.155400
     13 C13          5.7200     1.8180    10.3680 c3         1 UNL       0.121400
     14 C14         10.5800     1.4910    12.2340 c          1 UNL       0.919600
     15 C15          5.8080    -0.5180     9.9320 ca         1 UNL       0.115100
     16 C16          6.5030    -0.3020     8.7490 ca         1 UNL      -0.157500
     17 C17          5.1990    -1.7400    10.1880 ca         1 UNL      -0.157500
     18 C18          5.9830    -2.5570     8.0530 cp         1 UNL      -0.077000
     19 C19          6.5910    -1.3260     7.8050 ca         1 UNL      -0.093000
     20 C20          5.2870    -2.7640     9.2440 ca         1 UNL      -0.093000
     21 C21          6.0730    -3.6180     7.0740 cp         1 UNL       0.028000
     22 C22          5.2960    -3.5670     5.9160 ca         1 UNL      -0.140500
     23 C23          6.9370    -4.6920     7.2870 ca         1 UNL      -0.140500
     24 C24          6.2490    -5.6640     5.1850 ca         1 UNL      -0.221900
     25 C25          5.3850    -4.5900     4.9720 ca         1 UNL      -0.059500
     26 C26          7.0260    -5.7150     6.3420 ca         1 UNL      -0.059500
     27 C27          6.3400    -6.7310     4.2010 ce         1 UNL       0.572400
     28 H1           6.8360     4.0380     8.7930 hn         1 UNL       0.322500
     29 H2           6.2130    -5.6740     2.4260 hn         1 UNL       0.300450
     30 H3           5.5030    -7.2230     2.3730 hn         1 UNL       0.300450
     31 H4           6.8250    -8.6520     3.9020 hn         1 UNL       0.300450
     32 H5           7.0160    -8.0970     5.5020 hn         1 UNL       0.300450
     33 H6           8.2180     2.7470    12.1680 hc         1 UNL       0.113700
     34 H7           6.8580     1.5430     8.6720 h1         1 UNL       0.049700
     35 H8           8.0050     0.7080    10.9550 hc         1 UNL       0.060200
     36 H9           9.0200     1.2190     9.6800 hc         1 UNL       0.060200
     37 H10         10.3620     3.5900    12.1590 hc         1 UNL       0.062200
     38 H11         10.6930     2.8160    10.6070 hc         1 UNL       0.062200
     39 H12          5.6570     2.5050    11.1860 h1         1 UNL       0.063700
     40 H13          4.8790     1.9680     9.7230 h1         1 UNL       0.063700
     41 H14          6.9520     0.6090     8.5690 ha         1 UNL       0.152000
     42 H15          4.6850    -1.8900    11.0700 ha         1 UNL       0.152000
     43 H16          7.1060    -1.1730     6.9240 ha         1 UNL       0.140500
     44 H17          4.8370    -3.6740     9.4270 ha         1 UNL       0.140500
     45 H18          4.6570    -2.7730     5.7580 ha         1 UNL       0.147000
     46 H19          7.5120    -4.7300     8.1430 ha         1 UNL       0.147000
     47 H20          4.8100    -4.5520     4.1150 ha         1 UNL       0.151000
     48 H21          7.6650    -6.5090     6.5000 ha         1 UNL       0.151000
@<TRIPOS>BOND
     1     1    13 1   
     2     1    15 1   
     3     2    11 2   
     4     3    14 1   
     5     4    14 1   
     6     5     9 1   
     7     5    11 1   
     8     6    27 2   
     9     7    27 1   
    10     8    10 1   
    11     8    11 1   
    12     8    12 1   
    13     9    10 1   
    14     9    13 1   
    15    12    14 1   
    16    15    16 ar  
    17    15    17 ar  
    18    16    19 ar  
    19    17    20 ar  
    20    18    19 ar  
    21    18    20 ar  
    22    18    21 1   
    23    21    22 ar  
    24    21    23 ar  
    25    22    25 ar  
    26    23    26 ar  
    27    24    25 ar  
    28    24    26 ar  
    29    24    27 1   
    30     5    28 1   
    31     6    29 1   
    32     6    30 1   
    33     7    31 1   
    34     7    32 1   
    35     8    33 1   
    36     9    34 1   
    37    10    35 1   
    38    10    36 1   
    39    12    37 1   
    40    12    38 1   
    41    13    39 1   
    42    13    40 1   
    43    16    41 1   
    44    17    42 1   
    45    19    43 1   
    46    20    44 1   
    47    22    45 1   
    48    23    46 1   
    49    25    47 1   
    50    26    48 1   
@<TRIPOS>SUBSTRUCTURE
     1 UNL         1 TEMP              0 ****  ****    0 ROOT
