@<TRIPOS>MOLECULE
5496659
   60    62     1     0     0
SMALL
bcc


@<TRIPOS>ATOM
      1 O1           6.3140    -6.7960    10.2990 os         1 UNL      -0.411900
      2 O2           8.4150    -6.4270     9.4220 o          1 UNL      -0.581000
      3 O3           6.8770    -1.4310    12.3320 o          1 UNL      -0.626100
      4 O4          11.8610     6.7830     8.2510 o          1 UNL      -0.537700
      5 N5           7.4480    -2.4720    10.3400 n          1 UNL      -0.578900
      6 N6           5.4690    -6.5820     2.8290 nh         1 UNL      -0.470600
      7 N7           6.9670    -7.4910     4.3750 nh         1 UNL      -0.454700
      8 N8          11.2850     5.7160     8.6390 na         1 UNL       0.543300
      9 C9           6.7400    -4.6570     9.3830 c3         1 UNL      -0.169700
     10 C10          6.8150    -3.7390    10.6240 c3         1 UNL       0.125700
     11 C11          7.4870    -4.0570     8.1740 c3         1 UNL      -0.032100
     12 C12          7.5040    -4.4180    11.8070 c3         1 UNL      -0.121100
     13 C13          6.6870    -4.1350     6.8940 ca         1 UNL      -0.084300
     14 C14          7.2810    -6.0500     9.6900 c          1 UNL       0.655100
     15 C15          6.7980    -5.2540     6.0690 ca         1 UNL      -0.066000
     16 C16          7.4240    -1.4120    11.2320 c          1 UNL       0.682700
     17 C17          5.8390    -3.0870     6.5370 ca         1 UNL      -0.062000
     18 C18          6.0620    -5.3250     4.8870 ca         1 UNL      -0.253900
     19 C19          8.0990    -0.1680    10.7800 ca         1 UNL      -0.155600
     20 C20          5.1030    -3.1570     5.3550 ca         1 UNL      -0.121000
     21 C21          5.2140    -4.2760     4.5300 ca         1 UNL      -0.080000
     22 C22          9.3750     0.1440    11.2490 ca         1 UNL      -0.083500
     23 C23          7.4560     0.6880     9.8860 ca         1 UNL      -0.083500
     24 C24          9.3660     2.1680     9.9290 cp         1 UNL       0.013000
     25 C25          6.1780    -6.4900     4.0250 ce         1 UNL       0.517400
     26 C26          5.0300    -6.1730    10.4020 c3         1 UNL       0.103700
     27 C27         10.0080     1.3110    10.8240 ca         1 UNL      -0.130500
     28 C28          8.0900     1.8560     9.4610 ca         1 UNL      -0.130500
     29 C29         10.0210     3.3800     9.4890 cp         1 UNL      -0.104000
     30 C30         10.9070     3.3420     8.4180 ca         1 UNL      -0.068000
     31 C31          9.7660     4.5840    10.1360 ca         1 UNL      -0.068000
     32 C32         11.5310     4.5140     8.0030 ca         1 UNL      -0.223800
     33 C33         10.4030     5.7420     9.7020 ca         1 UNL      -0.223800
     34 H1           7.9150    -2.3580     9.4800 hn         1 UNL       0.323500
     35 H2           4.9360    -5.8170     2.5130 hn         1 UNL       0.330200
     36 H3           5.5000    -7.4120     2.3000 hn         1 UNL       0.330200
     37 H4           7.0470    -8.2810     3.7930 hn         1 UNL       0.330200
     38 H5           7.4740    -7.4470     5.2180 hn         1 UNL       0.330200
     39 H6           5.7040    -4.7390     9.1260 hc         1 UNL       0.104700
     40 H7           5.7990    -3.5440    10.8970 h1         1 UNL       0.073700
     41 H8           8.4030    -4.5940     8.0380 hc         1 UNL       0.076200
     42 H9           7.6610    -3.0230     8.3830 hc         1 UNL       0.076200
     43 H10          8.5240    -4.6220    11.5560 hc         1 UNL       0.058367
     44 H11          7.0020    -5.3350    12.0340 hc         1 UNL       0.058367
     45 H12          7.4700    -3.7710    12.6590 hc         1 UNL       0.058367
     46 H13          7.4250    -6.0300     6.3330 ha         1 UNL       0.173000
     47 H14          5.7570    -2.2590     7.1480 ha         1 UNL       0.163000
     48 H15          4.4750    -2.3810     5.0900 ha         1 UNL       0.165000
     49 H16          4.6690    -4.3280     3.6550 ha         1 UNL       0.147000
     50 H17          9.8510    -0.4900    11.9100 ha         1 UNL       0.145000
     51 H18          6.5120     0.4580     9.5380 ha         1 UNL       0.145000
     52 H19          4.3490    -6.8380    10.8920 h1         1 UNL       0.067700
     53 H20          4.6640    -5.9470     9.4220 h1         1 UNL       0.067700
     54 H21          5.1150    -5.2690    10.9680 h1         1 UNL       0.067700
     55 H22         10.9530     1.5420    11.1710 ha         1 UNL       0.147500
     56 H23          7.6140     2.4890     8.7990 ha         1 UNL       0.147500
     57 H24         11.1000     2.4510     7.9340 ha         1 UNL       0.156000
     58 H25          9.1100     4.6180    10.9320 ha         1 UNL       0.156000
     59 H26         12.1880     4.4850     7.2080 h4         1 UNL       0.192500
     60 H27         10.2140     6.6360    10.1830 h4         1 UNL       0.192500
@<TRIPOS>BOND
     1     1    14 1   
     2     1    26 1   
     3     2    14 2   
     4     3    16 2   
     5     4     8 2   
     6     5    10 1   
     7     5    16 1   
     8     6    25 2   
     9     7    25 1   
    10     8    32 1   
    11     8    33 2   
    12     9    10 1   
    13     9    11 1   
    14     9    14 1   
    15    10    12 1   
    16    11    13 1   
    17    13    15 ar  
    18    13    17 ar  
    19    15    18 ar  
    20    16    19 1   
    21    17    20 ar  
    22    18    21 ar  
    23    18    25 1   
    24    19    22 ar  
    25    19    23 ar  
    26    20    21 ar  
    27    22    27 ar  
    28    23    28 ar  
    29    24    27 ar  
    30    24    28 ar  
    31    24    29 1   
    32    29    30 ar  
    33    29    31 ar  
    34    30    32 ar  
    35    31    33 ar  
    36     5    34 1   
    37     6    35 1   
    38     6    36 1   
    39     7    37 1   
    40     7    38 1   
    41     9    39 1   
    42    10    40 1   
    43    11    41 1   
    44    11    42 1   
    45    12    43 1   
    46    12    44 1   
    47    12    45 1   
    48    15    46 1   
    49    17    47 1   
    50    20    48 1   
    51    21    49 1   
    52    22    50 1   
    53    23    51 1   
    54    26    52 1   
    55    26    53 1   
    56    26    54 1   
    57    27    55 1   
    58    28    56 1   
    59    30    57 1   
    60    31    58 1   
    61    32    59 1   
    62    33    60 1   
@<TRIPOS>SUBSTRUCTURE
     1 UNL         1 TEMP              0 ****  ****    0 ROOT
