@<TRIPOS>MOLECULE
5496659
   60    62     1     0     0
SMALL
bcc


@<TRIPOS>ATOM
      1 O1           7.5880    -7.1410     9.7450 os         1 UNL      -0.435900
      2 O2           8.3960    -5.0820     9.0910 o          1 UNL      -0.568000
      3 O3           4.3530    -6.7990    13.0900 o          1 UNL      -0.596100
      4 O4           1.5210   -16.8170    12.3270 o          1 UNL      -0.542700
      5 N5           4.8130    -6.9990    10.8260 n          1 UNL      -0.582900
      6 N6           7.3880    -6.9280     4.3250 nh         1 UNL      -0.469600
      7 N7           5.2070    -6.6960     3.5180 nh         1 UNL      -0.453700
      8 N8           1.8910   -15.5990    12.2920 na         1 UNL       0.541300
      9 C9           5.9940    -5.4590     9.2680 c3         1 UNL      -0.128700
     10 C10          5.2900    -5.6490    10.6310 c3         1 UNL       0.117700
     11 C11          5.8520    -4.0160     8.7400 c3         1 UNL      -0.045100
     12 C12          4.1500    -4.6530    10.8390 c3         1 UNL      -0.116100
     13 C13          5.8070    -3.9470     7.2320 ca         1 UNL      -0.072300
     14 C14          7.4690    -5.8400     9.3480 c          1 UNL       0.648100
     15 C15          6.0060    -5.1010     6.4740 ca         1 UNL      -0.074000
     16 C16          4.3790    -7.4640    12.0570 c          1 UNL       0.681700
     17 C17          5.5680    -2.7290     6.5960 ca         1 UNL      -0.063000
     18 C18          5.9670    -5.0370     5.0810 ca         1 UNL      -0.256900
     19 C19          3.9440    -8.8830    12.0980 ca         1 UNL      -0.146600
     20 C20          5.5290    -2.6640     5.2030 ca         1 UNL      -0.118000
     21 C21          5.7280    -3.8180     4.4460 ca         1 UNL      -0.086000
     22 C22          2.5860    -9.1990    12.0340 ca         1 UNL      -0.087000
     23 C23          4.8930    -9.9010    12.1990 ca         1 UNL      -0.087000
     24 C24          3.1270   -11.5500    12.1730 cp         1 UNL       0.005000
     25 C25          6.1760    -6.2390     4.2910 ce         1 UNL       0.525400
     26 C26          8.5280    -7.3810    10.7970 c3         1 UNL       0.121700
     27 C27          2.1780   -10.5330    12.0720 ca         1 UNL      -0.129500
     28 C28          4.4840   -11.2340    12.2370 ca         1 UNL      -0.129500
     29 C29          2.7050   -12.9330    12.2140 cp         1 UNL      -0.099000
     30 C30          2.6390   -13.6750    11.0400 ca         1 UNL      -0.070500
     31 C31          2.3650   -13.5220    13.4270 ca         1 UNL      -0.070500
     32 C32          2.2320   -15.0040    11.0920 ca         1 UNL      -0.223300
     33 C33          1.9600   -14.8530    13.4520 ca         1 UNL      -0.223300
     34 H1           4.7950    -7.6110    10.0550 hn         1 UNL       0.323500
     35 H2           7.9790    -6.9210     3.5380 hn         1 UNL       0.326200
     36 H3           7.6520    -7.4200     5.1350 hn         1 UNL       0.326200
     37 H4           5.3460    -7.5100     2.9820 hn         1 UNL       0.326200
     38 H5           4.3440    -6.2220     3.4780 hn         1 UNL       0.326200
     39 H6           5.5060    -6.1150     8.5780 hc         1 UNL       0.088700
     40 H7           6.0400    -5.4570    11.3700 h1         1 UNL       0.101700
     41 H8           6.6870    -3.4430     9.0840 hc         1 UNL       0.082700
     42 H9           4.9260    -3.6280     9.1090 hc         1 UNL       0.082700
     43 H10          3.3870    -4.8280    10.1090 hc         1 UNL       0.051033
     44 H11          4.5240    -3.6560    10.7320 hc         1 UNL       0.051033
     45 H12          3.7410    -4.7780    11.8200 hc         1 UNL       0.051033
     46 H13          6.1830    -6.0030     6.9440 ha         1 UNL       0.179000
     47 H14          5.4200    -1.8750     7.1570 ha         1 UNL       0.163000
     48 H15          5.3520    -1.7620     4.7330 ha         1 UNL       0.167000
     49 H16          5.6990    -3.7700     3.4150 ha         1 UNL       0.147000
     50 H17          1.8840    -8.4470    11.9590 ha         1 UNL       0.146000
     51 H18          5.8970    -9.6670    12.2460 ha         1 UNL       0.146000
     52 H19          8.5430    -8.4250    11.0300 h1         1 UNL       0.057033
     53 H20          8.2410    -6.8250    11.6650 h1         1 UNL       0.057033
     54 H21          9.5020    -7.0710    10.4810 h1         1 UNL       0.057033
     55 H22          1.1740   -10.7670    12.0250 ha         1 UNL       0.144000
     56 H23          5.1870   -11.9870    12.3120 ha         1 UNL       0.144000
     57 H24          2.8900   -13.2430    10.1370 ha         1 UNL       0.156000
     58 H25          2.4120   -12.9760    14.3010 ha         1 UNL       0.156000
     59 H26          2.1830   -15.5550    10.2200 h4         1 UNL       0.191500
     60 H27          1.7080   -15.2900    14.3520 h4         1 UNL       0.191500
@<TRIPOS>BOND
     1     1    14 1   
     2     1    26 1   
     3     2    14 2   
     4     3    16 2   
     5     4     8 2   
     6     5    10 1   
     7     5    16 1   
     8     6    25 2   
     9     7    25 1   
    10     8    32 1   
    11     8    33 2   
    12     9    10 1   
    13     9    11 1   
    14     9    14 1   
    15    10    12 1   
    16    11    13 1   
    17    13    15 ar  
    18    13    17 ar  
    19    15    18 ar  
    20    16    19 1   
    21    17    20 ar  
    22    18    21 ar  
    23    18    25 1   
    24    19    22 ar  
    25    19    23 ar  
    26    20    21 ar  
    27    22    27 ar  
    28    23    28 ar  
    29    24    27 ar  
    30    24    28 ar  
    31    24    29 1   
    32    29    30 ar  
    33    29    31 ar  
    34    30    32 ar  
    35    31    33 ar  
    36     5    34 1   
    37     6    35 1   
    38     6    36 1   
    39     7    37 1   
    40     7    38 1   
    41     9    39 1   
    42    10    40 1   
    43    11    41 1   
    44    11    42 1   
    45    12    43 1   
    46    12    44 1   
    47    12    45 1   
    48    15    46 1   
    49    17    47 1   
    50    20    48 1   
    51    21    49 1   
    52    22    50 1   
    53    23    51 1   
    54    26    52 1   
    55    26    53 1   
    56    26    54 1   
    57    27    55 1   
    58    28    56 1   
    59    30    57 1   
    60    31    58 1   
    61    32    59 1   
    62    33    60 1   
@<TRIPOS>SUBSTRUCTURE
     1 UNL         1 TEMP              0 ****  ****    0 ROOT
