@<TRIPOS>MOLECULE
66000
   48    50     1     0     0
SMALL
bcc


@<TRIPOS>ATOM
      1 O1           5.8620     0.8040    11.9290 os         1 UNL      -0.340900
      2 O2           1.2630     1.4960    14.8660 o          1 UNL      -0.631500
      3 O3           1.8800    -2.4210    16.1430 o          1 UNL      -0.869300
      4 O4           4.0910    -2.6700    15.6640 o          1 UNL      -0.869300
      5 N5           3.1500     2.3790    13.8020 n          1 UNL      -0.591900
      6 N6           7.4670    -6.7540     4.6240 nh         1 UNL      -0.473100
      7 N7           5.2210    -6.3160     4.1530 nh         1 UNL      -0.457200
      8 C8           3.3430     0.2250    14.6940 c3         1 UNL      -0.120700
      9 C9           4.5030     1.9690    13.5100 c3         1 UNL       0.070700
     10 C10          4.7330     0.8450    14.5140 c3         1 UNL      -0.088400
     11 C11          2.4260     1.4180    14.5020 c          1 UNL       0.697500
     12 C12          3.1580    -0.4500    16.0390 c3         1 UNL      -0.153400
     13 C13          4.6430     1.5130    12.0650 c3         1 UNL       0.120400
     14 C14          3.1360    -1.9540    15.9210 c          1 UNL       0.902600
     15 C15          5.9210    -0.1510    10.9460 ca         1 UNL       0.114100
     16 C16          5.5160    -1.4500    11.2260 ca         1 UNL      -0.154500
     17 C17          6.3870     0.1920     9.6820 ca         1 UNL      -0.154500
     18 C18          6.0430    -2.0870     8.9560 cp         1 UNL      -0.078000
     19 C19          5.5770    -2.4220    10.2270 ca         1 UNL      -0.093500
     20 C20          6.4480    -0.7800     8.6840 ca         1 UNL      -0.093500
     21 C21          6.1070    -3.0940     7.9200 cp         1 UNL       0.025000
     22 C22          6.4260    -4.4120     8.2470 ca         1 UNL      -0.127000
     23 C23          5.8480    -2.7490     6.5930 ca         1 UNL      -0.127000
     24 C24          6.2270    -5.0380     5.9220 ca         1 UNL      -0.248900
     25 C25          6.4860    -5.3840     7.2480 ca         1 UNL      -0.055000
     26 C26          5.9080    -3.7210     5.5950 ca         1 UNL      -0.055000
     27 C27          6.2920    -6.0510     4.8800 ce         1 UNL       0.490400
     28 H1           2.7780     3.2500    13.5320 hn         1 UNL       0.321500
     29 H2           7.8750    -7.3060     5.3310 hn         1 UNL       0.326950
     30 H3           7.8900    -6.7000     3.7370 hn         1 UNL       0.326950
     31 H4           5.2620    -7.0010     3.4470 hn         1 UNL       0.326950
     32 H5           4.3820    -5.8270     4.3160 hn         1 UNL       0.326950
     33 H6           3.1500    -0.5720    14.0060 hc         1 UNL       0.106700
     34 H7           5.2250     2.7530    13.6040 h1         1 UNL       0.051700
     35 H8           5.4250     0.1250    14.1280 hc         1 UNL       0.060700
     36 H9           5.1540     1.1910    15.4350 hc         1 UNL       0.060700
     37 H10          2.2330    -0.1240    16.4650 hc         1 UNL       0.063200
     38 H11          3.9870    -0.1810    16.6600 hc         1 UNL       0.063200
     39 H12          3.8240     0.8730    11.8080 h1         1 UNL       0.061200
     40 H13          4.6380     2.3600    11.4120 h1         1 UNL       0.061200
     41 H14          5.1720    -1.6950    12.1680 ha         1 UNL       0.151500
     42 H15          6.6850     1.1590     9.4840 ha         1 UNL       0.151500
     43 H16          5.2770    -3.3880    10.4290 ha         1 UNL       0.140500
     44 H17          6.7930    -0.5320     7.7430 ha         1 UNL       0.140500
     45 H18          6.6180    -4.6680     9.2280 ha         1 UNL       0.152500
     46 H19          5.6110    -1.7740     6.3510 ha         1 UNL       0.152500
     47 H20          6.7230    -6.3590     7.4900 ha         1 UNL       0.155500
     48 H21          5.7150    -3.4650     4.6140 ha         1 UNL       0.155500
@<TRIPOS>BOND
     1     1    13 1   
     2     1    15 1   
     3     2    11 2   
     4     3    14 1   
     5     4    14 1   
     6     5     9 1   
     7     5    11 1   
     8     6    27 2   
     9     7    27 1   
    10     8    10 1   
    11     8    11 1   
    12     8    12 1   
    13     9    10 1   
    14     9    13 1   
    15    12    14 1   
    16    15    16 ar  
    17    15    17 ar  
    18    16    19 ar  
    19    17    20 ar  
    20    18    19 ar  
    21    18    20 ar  
    22    18    21 1   
    23    21    22 ar  
    24    21    23 ar  
    25    22    25 ar  
    26    23    26 ar  
    27    24    25 ar  
    28    24    26 ar  
    29    24    27 1   
    30     5    28 1   
    31     6    29 1   
    32     6    30 1   
    33     7    31 1   
    34     7    32 1   
    35     8    33 1   
    36     9    34 1   
    37    10    35 1   
    38    10    36 1   
    39    12    37 1   
    40    12    38 1   
    41    13    39 1   
    42    13    40 1   
    43    16    41 1   
    44    17    42 1   
    45    19    43 1   
    46    20    44 1   
    47    22    45 1   
    48    23    46 1   
    49    25    47 1   
    50    26    48 1   
@<TRIPOS>SUBSTRUCTURE
     1 UNL         1 TEMP              0 ****  ****    0 ROOT
