@<TRIPOS>MOLECULE
5496659
   60    62     1     0     0
SMALL
bcc


@<TRIPOS>ATOM
      1 O1           3.8300    -5.8130    11.1440 os         1 UNL      -0.421900
      2 O2           5.1550    -4.1140    11.9670 o          1 UNL      -0.581000
      3 O3           5.8460    -2.1960    11.5030 o          1 UNL      -0.604100
      4 O4          11.5290     6.3190     9.4590 o          1 UNL      -0.541700
      5 N5           4.7610    -1.6600     9.5250 n          1 UNL      -0.579900
      6 N6           7.3690    -6.8920     4.3520 nh         1 UNL      -0.469600
      7 N7           5.0740    -6.7550     3.9360 nh         1 UNL      -0.453700
      8 N8          10.7720     5.3040     9.5960 na         1 UNL       0.542300
      9 C9           4.4990    -4.1320     9.6200 c3         1 UNL      -0.125700
     10 C10          3.8120    -2.7490     9.5540 c3         1 UNL       0.135700
     11 C11          5.9190    -4.1030     9.0190 c3         1 UNL      -0.044100
     12 C12          2.8100    -2.5440    10.6880 c3         1 UNL      -0.123100
     13 C13          5.9140    -3.9990     7.5110 ca         1 UNL      -0.069300
     14 C14          4.5510    -4.6570    11.0510 c          1 UNL       0.660100
     15 C15          6.0260    -5.1500     6.7320 ca         1 UNL      -0.079000
     16 C16          5.7100    -1.4750    10.5190 c          1 UNL       0.682700
     17 C17          5.8000    -2.7510     6.8990 ca         1 UNL      -0.064000
     18 C18          6.0240    -5.0540     5.3410 ca         1 UNL      -0.256900
     19 C19          6.5950    -0.2920    10.3570 ca         1 UNL      -0.151600
     20 C20          5.7980    -2.6540     5.5080 ca         1 UNL      -0.117000
     21 C21          5.9110    -3.8060     4.7280 ca         1 UNL      -0.087000
     22 C22          7.8690    -0.2910    10.9260 ca         1 UNL      -0.087000
     23 C23          6.1520     0.8170     9.6370 ca         1 UNL      -0.087000
     24 C24          8.2560     1.9290    10.0540 cp         1 UNL       0.005000
     25 C25          6.1430    -6.2540     4.5280 ce         1 UNL       0.525400
     26 C26          3.1400    -6.0100    12.3820 c3         1 UNL       0.125700
     27 C27          8.6990     0.8200    10.7750 ca         1 UNL      -0.129500
     28 C28          6.9820     1.9270     9.4850 ca         1 UNL      -0.129500
     29 C29          9.1160     3.0820     9.8970 cp         1 UNL      -0.099000
     30 C30          8.8420     4.2530    10.5950 ca         1 UNL      -0.070000
     31 C31         10.2150     3.0200     9.0490 ca         1 UNL      -0.070000
     32 C32          9.6760     5.3550    10.4360 ca         1 UNL      -0.223800
     33 C33         11.0340     4.1360     8.9070 ca         1 UNL      -0.223800
     34 H1           4.7320    -1.0250     8.7730 hn         1 UNL       0.315500
     35 H2           7.8540    -6.8010     3.5010 hn         1 UNL       0.325950
     36 H3           7.7500    -7.4350     5.0800 hn         1 UNL       0.325950
     37 H4           5.1520    -7.5680     3.3850 hn         1 UNL       0.325950
     38 H5           4.1990    -6.3170     4.0450 hn         1 UNL       0.325950
     39 H6           3.9020    -4.7970     9.0310 hc         1 UNL       0.091700
     40 H7           3.2760    -2.7400     8.6280 h1         1 UNL       0.052700
     41 H8           6.4270    -5.0020     9.2980 hc         1 UNL       0.077200
     42 H9           6.4130    -3.2330     9.4010 hc         1 UNL       0.077200
     43 H10          3.3250    -2.5480    11.6250 hc         1 UNL       0.062700
     44 H11          2.0880    -3.3340    10.6740 hc         1 UNL       0.062700
     45 H12          2.3130    -1.6050    10.5590 hc         1 UNL       0.062700
     46 H13          6.1110    -6.0740     7.1860 ha         1 UNL       0.182000
     47 H14          5.7170    -1.8990     7.4760 ha         1 UNL       0.162000
     48 H15          5.7140    -1.7310     5.0540 ha         1 UNL       0.166000
     49 H16          5.9090    -3.7340     3.6990 ha         1 UNL       0.147000
     50 H17          8.1970    -1.1110    11.4590 ha         1 UNL       0.145000
     51 H18          5.2100     0.8160     9.2160 ha         1 UNL       0.145000
     52 H19          2.6100    -6.9380    12.3510 h1         1 UNL       0.058700
     53 H20          2.4480    -5.2080    12.5360 h1         1 UNL       0.058700
     54 H21          3.8470    -6.0290    13.1860 h1         1 UNL       0.058700
     55 H22          9.6410     0.8210    11.1960 ha         1 UNL       0.145000
     56 H23          6.6540     2.7480     8.9520 ha         1 UNL       0.145000
     57 H24          8.0270     4.3050    11.2260 ha         1 UNL       0.155500
     58 H25         10.4230     2.1530     8.5290 ha         1 UNL       0.155500
     59 H26          9.4730     6.2240    10.9540 h4         1 UNL       0.191500
     60 H27         11.8510     4.0900     8.2780 h4         1 UNL       0.191500
@<TRIPOS>BOND
     1     1    14 1   
     2     1    26 1   
     3     2    14 2   
     4     3    16 2   
     5     4     8 2   
     6     5    10 1   
     7     5    16 1   
     8     6    25 2   
     9     7    25 1   
    10     8    32 1   
    11     8    33 2   
    12     9    10 1   
    13     9    11 1   
    14     9    14 1   
    15    10    12 1   
    16    11    13 1   
    17    13    15 ar  
    18    13    17 ar  
    19    15    18 ar  
    20    16    19 1   
    21    17    20 ar  
    22    18    21 ar  
    23    18    25 1   
    24    19    22 ar  
    25    19    23 ar  
    26    20    21 ar  
    27    22    27 ar  
    28    23    28 ar  
    29    24    27 ar  
    30    24    28 ar  
    31    24    29 1   
    32    29    30 ar  
    33    29    31 ar  
    34    30    32 ar  
    35    31    33 ar  
    36     5    34 1   
    37     6    35 1   
    38     6    36 1   
    39     7    37 1   
    40     7    38 1   
    41     9    39 1   
    42    10    40 1   
    43    11    41 1   
    44    11    42 1   
    45    12    43 1   
    46    12    44 1   
    47    12    45 1   
    48    15    46 1   
    49    17    47 1   
    50    20    48 1   
    51    21    49 1   
    52    22    50 1   
    53    23    51 1   
    54    26    52 1   
    55    26    53 1   
    56    26    54 1   
    57    27    55 1   
    58    28    56 1   
    59    30    57 1   
    60    31    58 1   
    61    32    59 1   
    62    33    60 1   
@<TRIPOS>SUBSTRUCTURE
     1 UNL         1 TEMP              0 ****  ****    0 ROOT
