@<TRIPOS>MOLECULE
66000
   48    50     1     0     0
SMALL
bcc


@<TRIPOS>ATOM
      1 O1           5.8270     2.9710    11.3350 os         1 UNL      -0.311900
      2 O2           2.6300     5.1910    15.4230 o          1 UNL      -0.639500
      3 O3           5.0180     6.5050    18.0530 o          1 UNL      -0.843300
      4 O4           4.8040     4.2820    17.6150 o          1 UNL      -0.843300
      5 N5           3.2610     4.8150    13.2010 n          1 UNL      -0.600900
      6 N6           6.8160    -6.7090     7.0470 nh         1 UNL      -0.481600
      7 N7           6.9860    -5.4600     5.0790 nh         1 UNL      -0.465700
      8 C8           4.9710     4.8640    14.7990 c3         1 UNL      -0.099700
      9 C9           4.4780     4.5920    12.4590 c3         1 UNL       0.093700
     10 C10          5.5480     5.1300    13.4040 c3         1 UNL      -0.080400
     11 C11          3.4770     4.9970    14.5650 c          1 UNL       0.692500
     12 C12          5.4900     5.8210    15.8540 c3         1 UNL      -0.195400
     13 C13          4.6630     3.1170    12.1310 c3         1 UNL       0.104400
     14 C14          5.0680     5.4160    17.2440 c          1 UNL       0.911600
     15 C15          5.9650     1.7930    10.6450 ca         1 UNL       0.202100
     16 C16          5.5900     0.5980    11.2460 ca         1 UNL      -0.196500
     17 C17          6.4810     1.8100     9.3560 ca         1 UNL      -0.196500
     18 C18          6.2490    -0.5930     9.2500 cp         1 UNL      -0.168000
     19 C19          5.7320    -0.6000    10.5450 ca         1 UNL      -0.051500
     20 C20          6.6240     0.6120     8.6550 ca         1 UNL      -0.051500
     21 C21          6.3980    -1.8350     8.5230 cp         1 UNL       0.107000
     22 C22          6.7650    -2.9990     9.1980 ca         1 UNL      -0.143000
     23 C23          6.1720    -1.8690     7.1470 ca         1 UNL      -0.143000
     24 C24          6.6810    -4.2310     7.1220 ca         1 UNL      -0.301900
     25 C25          6.9060    -4.1970     8.4980 ca         1 UNL      -0.067000
     26 C26          6.3130    -3.0670     6.4470 ca         1 UNL      -0.067000
     27 C27          6.8300    -5.4790     6.3910 ce         1 UNL       0.531400
     28 H1           2.3690     4.8370    12.7850 hn         1 UNL       0.311500
     29 H2           7.6340    -7.2570     7.0830 hn         1 UNL       0.321200
     30 H3           5.9890    -7.0310     7.4740 hn         1 UNL       0.321200
     31 H4           7.0870    -6.3040     4.5830 hn         1 UNL       0.321200
     32 H5           7.0010    -4.6010     4.5980 hn         1 UNL       0.321200
     33 H6           5.2540     3.9100    15.1920 hc         1 UNL       0.093700
     34 H7           4.5000     5.0730    11.5030 h1         1 UNL       0.049700
     35 H8           6.4730     4.6090    13.2690 hc         1 UNL       0.081200
     36 H9           5.7660     6.1640    13.2370 hc         1 UNL       0.081200
     37 H10          5.1090     6.8000    15.6490 hc         1 UNL       0.043200
     38 H11          6.5590     5.8050    15.8160 hc         1 UNL       0.043200
     39 H12          4.7750     2.5580    13.0370 h1         1 UNL       0.058700
     40 H13          3.8100     2.7510    11.6000 h1         1 UNL       0.058700
     41 H14          5.2080     0.5960    12.2050 ha         1 UNL       0.163500
     42 H15          6.7580     2.7030     8.9190 ha         1 UNL       0.163500
     43 H16          5.4550    -1.4910    10.9850 ha         1 UNL       0.130500
     44 H17          7.0070     0.6170     7.6970 ha         1 UNL       0.130500
     45 H18          6.9320    -2.9740    10.2170 ha         1 UNL       0.167000
     46 H19          5.9000    -1.0080     6.6470 ha         1 UNL       0.167000
     47 H20          7.1780    -5.0580     8.9980 ha         1 UNL       0.138500
     48 H21          6.1450    -3.0930     5.4290 ha         1 UNL       0.138500
@<TRIPOS>BOND
     1     1    13 1   
     2     1    15 1   
     3     2    11 2   
     4     3    14 1   
     5     4    14 1   
     6     5     9 1   
     7     5    11 1   
     8     6    27 2   
     9     7    27 1   
    10     8    10 1   
    11     8    11 1   
    12     8    12 1   
    13     9    10 1   
    14     9    13 1   
    15    12    14 1   
    16    15    16 ar  
    17    15    17 ar  
    18    16    19 ar  
    19    17    20 ar  
    20    18    19 ar  
    21    18    20 ar  
    22    18    21 1   
    23    21    22 ar  
    24    21    23 ar  
    25    22    25 ar  
    26    23    26 ar  
    27    24    25 ar  
    28    24    26 ar  
    29    24    27 1   
    30     5    28 1   
    31     6    29 1   
    32     6    30 1   
    33     7    31 1   
    34     7    32 1   
    35     8    33 1   
    36     9    34 1   
    37    10    35 1   
    38    10    36 1   
    39    12    37 1   
    40    12    38 1   
    41    13    39 1   
    42    13    40 1   
    43    16    41 1   
    44    17    42 1   
    45    19    43 1   
    46    20    44 1   
    47    22    45 1   
    48    23    46 1   
    49    25    47 1   
    50    26    48 1   
@<TRIPOS>SUBSTRUCTURE
     1 UNL         1 TEMP              0 ****  ****    0 ROOT
