@<TRIPOS>MOLECULE
66000
   48    50     1     0     0
SMALL
bcc


@<TRIPOS>ATOM
      1 O1           5.5200     1.8320    11.8190 os         1 UNL      -0.338900
      2 O2           1.2400     1.7300    15.0100 o          1 UNL      -0.628500
      3 O3           3.9890     3.0010    19.2920 o          1 UNL      -0.863300
      4 O4           5.2570     1.5080    18.1340 o          1 UNL      -0.863300
      5 N5           3.0150     2.4450    13.6630 n          1 UNL      -0.546900
      6 N6           6.1050    -5.4680     4.1070 nh         1 UNL      -0.473600
      7 N7           6.9720    -6.7600     5.8510 nh         1 UNL      -0.457700
      8 C8           3.5280     1.8320    15.8630 c3         1 UNL      -0.121700
      9 C9           4.4390     2.6430    13.7880 c3         1 UNL       0.050700
     10 C10          4.6310     2.7350    15.2980 c3         1 UNL      -0.086400
     11 C11          2.4210     1.9910    14.8380 c          1 UNL       0.684500
     12 C12          3.0950     2.2210    17.2630 c3         1 UNL      -0.148400
     13 C13          5.2140     1.4930    13.1600 c3         1 UNL       0.111400
     14 C14          4.2410     2.1770    18.2430 c          1 UNL       0.893600
     15 C15          5.6530     0.7950    10.9290 ca         1 UNL       0.109100
     16 C16          5.1290    -0.4520    11.2460 ca         1 UNL      -0.160500
     17 C17          6.3100     1.0050     9.7240 ca         1 UNL      -0.160500
     18 C18          5.9230    -1.3040     9.1290 cp         1 UNL      -0.085000
     19 C19          5.2640    -1.5060    10.3420 ca         1 UNL      -0.085000
     20 C20          6.4460    -0.0490     8.8200 ca         1 UNL      -0.085000
     21 C21          6.0640    -2.3970     8.1930 cp         1 UNL       0.019000
     22 C22          5.2810    -2.4330     7.0380 ca         1 UNL      -0.127500
     23 C23          6.9840    -3.4160     8.4420 ca         1 UNL      -0.127500
     24 C24          6.3390    -4.5040     6.3840 ca         1 UNL      -0.239900
     25 C25          5.4190    -3.4860     6.1340 ca         1 UNL      -0.066500
     26 C26          7.1220    -4.4690     7.5380 ca         1 UNL      -0.066500
     27 C27          6.4810    -5.6030     5.4430 ce         1 UNL       0.493400
     28 H1           2.5150     2.6150    12.8330 hn         1 UNL       0.313500
     29 H2           6.7220    -5.7430     3.3920 hn         1 UNL       0.326450
     30 H3           5.2220    -5.0960     3.8800 hn         1 UNL       0.326450
     31 H4           7.0690    -7.5060     5.2150 hn         1 UNL       0.326450
     32 H5           7.2410    -6.8770     6.7910 hn         1 UNL       0.326450
     33 H6           3.8440     0.8180    15.9910 hc         1 UNL       0.094700
     34 H7           4.8040     3.5090    13.2770 h1         1 UNL       0.061700
     35 H8           5.5990     2.3770    15.5820 hc         1 UNL       0.059200
     36 H9           4.5710     3.7390    15.6630 hc         1 UNL       0.059200
     37 H10          2.3350     1.5420    17.5900 hc         1 UNL       0.060200
     38 H11          2.7290     3.2250    17.2280 hc         1 UNL       0.060200
     39 H12          6.1190     1.3280    13.7060 h1         1 UNL       0.060200
     40 H13          4.6250     0.6000    13.1850 h1         1 UNL       0.060200
     41 H14          4.6420    -0.5970    12.1440 ha         1 UNL       0.150000
     42 H15          6.6960     1.9360     9.4980 ha         1 UNL       0.150000
     43 H16          4.8770    -2.4340    10.5710 ha         1 UNL       0.145000
     44 H17          6.9330     0.1000     7.9230 ha         1 UNL       0.145000
     45 H18          4.6000    -1.6800     6.8530 ha         1 UNL       0.162500
     46 H19          7.5630    -3.3900     9.2960 ha         1 UNL       0.162500
     47 H20          4.8400    -3.5120     5.2800 ha         1 UNL       0.161000
     48 H21          7.8030    -5.2220     7.7230 ha         1 UNL       0.161000
@<TRIPOS>BOND
     1     1    13 1   
     2     1    15 1   
     3     2    11 2   
     4     3    14 1   
     5     4    14 1   
     6     5     9 1   
     7     5    11 1   
     8     6    27 2   
     9     7    27 1   
    10     8    10 1   
    11     8    11 1   
    12     8    12 1   
    13     9    10 1   
    14     9    13 1   
    15    12    14 1   
    16    15    16 ar  
    17    15    17 ar  
    18    16    19 ar  
    19    17    20 ar  
    20    18    19 ar  
    21    18    20 ar  
    22    18    21 1   
    23    21    22 ar  
    24    21    23 ar  
    25    22    25 ar  
    26    23    26 ar  
    27    24    25 ar  
    28    24    26 ar  
    29    24    27 1   
    30     5    28 1   
    31     6    29 1   
    32     6    30 1   
    33     7    31 1   
    34     7    32 1   
    35     8    33 1   
    36     9    34 1   
    37    10    35 1   
    38    10    36 1   
    39    12    37 1   
    40    12    38 1   
    41    13    39 1   
    42    13    40 1   
    43    16    41 1   
    44    17    42 1   
    45    19    43 1   
    46    20    44 1   
    47    22    45 1   
    48    23    46 1   
    49    25    47 1   
    50    26    48 1   
@<TRIPOS>SUBSTRUCTURE
     1 UNL         1 TEMP              0 ****  ****    0 ROOT
