@<TRIPOS>MOLECULE
66000
   48    50     1     0     0
SMALL
bcc


@<TRIPOS>ATOM
      1 O1           6.8380    -0.2100    11.3550 os         1 UNL      -0.333900
      2 O2           6.2400     2.5100     8.5690 o          1 UNL      -0.647500
      3 O3           4.4870     5.6530    12.2490 o          1 UNL      -0.871800
      4 O4           4.8100     3.6000    13.1780 o          1 UNL      -0.871800
      5 N5           8.0270     1.5960     9.7730 n          1 UNL      -0.593900
      6 N6           5.6960    -6.4560     2.8250 nh         1 UNL      -0.454100
      7 N7           6.5500    -8.0600     4.2940 nh         1 UNL      -0.438200
      8 C8           6.3980     2.7480    10.9960 c3         1 UNL      -0.116700
      9 C9           8.4660     1.5260    11.1460 c3         1 UNL       0.073700
     10 C10          7.7020     2.6740    11.7980 c3         1 UNL      -0.082400
     11 C11          6.8400     2.3070     9.6130 c          1 UNL       0.703500
     12 C12          5.7700     4.1290    11.0010 c3         1 UNL      -0.153400
     13 C13          8.1410     0.1720    11.7610 c3         1 UNL       0.118400
     14 C14          4.9860     4.3900    12.2630 c          1 UNL       0.916600
     15 C15          6.7470    -1.1300    10.3410 ca         1 UNL       0.120100
     16 C16          6.2600    -0.7370     9.1000 ca         1 UNL      -0.165500
     17 C17          7.1420    -2.4430    10.5670 ca         1 UNL      -0.165500
     18 C18          6.5610    -2.9930     8.2880 cp         1 UNL      -0.084000
     19 C19          6.1670    -1.6730     8.0700 ca         1 UNL      -0.084000
     20 C20          7.0480    -3.3780     9.5360 ca         1 UNL      -0.084000
     21 C21          6.4630    -3.9630     7.2190 cp         1 UNL       0.023000
     22 C22          5.9030    -3.5980     5.9940 ca         1 UNL      -0.135500
     23 C23          6.9300    -5.2630     7.4120 ca         1 UNL      -0.135500
     24 C24          6.2780    -5.8330     5.1570 ca         1 UNL      -0.234900
     25 C25          5.8100    -4.5340     4.9640 ca         1 UNL      -0.058000
     26 C26          6.8380    -6.1980     6.3810 ca         1 UNL      -0.058000
     27 C27          6.1800    -6.8090     4.0830 ce         1 UNL       0.569400
     28 H1           8.5170     1.1840     9.0250 hn         1 UNL       0.320500
     29 H2           6.0130    -5.6320     2.3880 hn         1 UNL       0.301450
     30 H3           5.0370    -7.0300     2.3720 hn         1 UNL       0.301450
     31 H4           6.4840    -8.7220     3.5680 hn         1 UNL       0.301450
     32 H5           6.8920    -8.3300     5.1770 hn         1 UNL       0.301450
     33 H6           5.6210     2.1390    11.4070 hc         1 UNL       0.098700
     34 H7           9.5240     1.6180    11.2700 h1         1 UNL       0.050700
     35 H8           7.5050     2.4640    12.8280 hc         1 UNL       0.066700
     36 H9           8.2490     3.5940    11.7860 hc         1 UNL       0.066700
     37 H10          5.1120     4.2120    10.1620 hc         1 UNL       0.058200
     38 H11          6.5590     4.8500    10.9480 hc         1 UNL       0.058200
     39 H12          8.8510    -0.5550    11.4260 h1         1 UNL       0.056700
     40 H13          8.1870     0.2360    12.8280 h1         1 UNL       0.056700
     41 H14          5.9700     0.2400     8.9420 ha         1 UNL       0.149000
     42 H15          7.5020    -2.7240    11.4920 ha         1 UNL       0.149000
     43 H16          5.8060    -1.3880     7.1450 ha         1 UNL       0.143500
     44 H17          7.3400    -4.3540     9.6980 ha         1 UNL       0.143500
     45 H18          5.5570    -2.6370     5.8510 ha         1 UNL       0.157500
     46 H19          7.3450    -5.5330     8.3180 ha         1 UNL       0.157500
     47 H20          5.3960    -4.2640     4.0580 ha         1 UNL       0.152500
     48 H21          7.1840    -7.1600     6.5240 ha         1 UNL       0.152500
@<TRIPOS>BOND
     1     1    13 1   
     2     1    15 1   
     3     2    11 2   
     4     3    14 1   
     5     4    14 1   
     6     5     9 1   
     7     5    11 1   
     8     6    27 2   
     9     7    27 1   
    10     8    10 1   
    11     8    11 1   
    12     8    12 1   
    13     9    10 1   
    14     9    13 1   
    15    12    14 1   
    16    15    16 ar  
    17    15    17 ar  
    18    16    19 ar  
    19    17    20 ar  
    20    18    19 ar  
    21    18    20 ar  
    22    18    21 1   
    23    21    22 ar  
    24    21    23 ar  
    25    22    25 ar  
    26    23    26 ar  
    27    24    25 ar  
    28    24    26 ar  
    29    24    27 1   
    30     5    28 1   
    31     6    29 1   
    32     6    30 1   
    33     7    31 1   
    34     7    32 1   
    35     8    33 1   
    36     9    34 1   
    37    10    35 1   
    38    10    36 1   
    39    12    37 1   
    40    12    38 1   
    41    13    39 1   
    42    13    40 1   
    43    16    41 1   
    44    17    42 1   
    45    19    43 1   
    46    20    44 1   
    47    22    45 1   
    48    23    46 1   
    49    25    47 1   
    50    26    48 1   
@<TRIPOS>SUBSTRUCTURE
     1 UNL         1 TEMP              0 ****  ****    0 ROOT
