@<TRIPOS>MOLECULE
66000
   48    50     1     0     0
SMALL
bcc


@<TRIPOS>ATOM
      1 O1           5.4920    -0.2190    11.5850 os         1 UNL      -0.337900
      2 O2           1.4740    -0.8310    14.6320 o          1 UNL      -0.622500
      3 O3           1.8330    -2.2020    18.5130 o          1 UNL      -0.865300
      4 O4           2.1810    -3.2720    16.5350 o          1 UNL      -0.865300
      5 N5           3.3370     0.1430    13.6030 n          1 UNL      -0.551900
      6 N6           5.4710    -6.4990     3.0030 nh         1 UNL      -0.473100
      7 N7           6.9780    -7.7240     4.3030 nh         1 UNL      -0.457200
      8 C8           3.7270    -1.1150    15.5370 c3         1 UNL      -0.115700
      9 C9           4.7620     0.2130    13.8180 c3         1 UNL       0.051700
     10 C10          4.8940    -0.1530    15.2930 c3         1 UNL      -0.088400
     11 C11          2.6720    -0.6000    14.5750 c          1 UNL       0.683500
     12 C12          3.2540    -1.1290    16.9780 c3         1 UNL      -0.150400
     13 C13          5.5070    -0.7460    12.9000 c3         1 UNL       0.110400
     14 C14          2.3810    -2.3220    17.2770 c          1 UNL       0.894600
     15 C15          5.5880    -1.1180    10.5530 ca         1 UNL       0.118100
     16 C16          5.1840    -2.4330    10.7480 ca         1 UNL      -0.161000
     17 C17          6.0880    -0.7030     9.3250 ca         1 UNL      -0.161000
     18 C18          5.7840    -2.9390     8.4630 cp         1 UNL      -0.084000
     19 C19          5.2820    -3.3470     9.6990 ca         1 UNL      -0.087000
     20 C20          6.1870    -1.6170     8.2760 ca         1 UNL      -0.087000
     21 C21          5.8860    -3.8870     7.3760 cp         1 UNL       0.027000
     22 C22          5.3630    -3.5710     6.1220 ca         1 UNL      -0.132500
     23 C23          6.5110    -5.1180     7.5800 ca         1 UNL      -0.132500
     24 C24          6.0880    -5.7150     5.2770 ca         1 UNL      -0.248900
     25 C25          5.4630    -4.4850     5.0730 ca         1 UNL      -0.060500
     26 C26          6.6120    -6.0320     6.5300 ca         1 UNL      -0.060500
     27 C27          6.1910    -6.6690     4.1840 ce         1 UNL       0.492400
     28 H1           2.8810     0.5770    12.8460 hn         1 UNL       0.314500
     29 H2           4.4910    -6.4040     3.0330 hn         1 UNL       0.326700
     30 H3           5.9420    -6.4730     2.1390 hn         1 UNL       0.326700
     31 H4           7.0490    -8.3700     3.5640 hn         1 UNL       0.326700
     32 H5           7.4920    -7.8630     5.1310 hn         1 UNL       0.326700
     33 H6           3.9880    -2.1390    15.3700 hc         1 UNL       0.082700
     34 H7           5.1900     1.1680    13.5950 h1         1 UNL       0.059700
     35 H8           5.8310    -0.6330    15.4840 hc         1 UNL       0.064700
     36 H9           4.8670     0.7030    15.9360 hc         1 UNL       0.064700
     37 H10          2.6940    -0.2360    17.1660 hc         1 UNL       0.062200
     38 H11          4.1170    -1.1850    17.6080 hc         1 UNL       0.062200
     39 H12          6.5180    -0.8520    13.2340 h1         1 UNL       0.061200
     40 H13          5.0350    -1.7060    12.9140 h1         1 UNL       0.061200
     41 H14          4.8140    -2.7320    11.6640 ha         1 UNL       0.152000
     42 H15          6.3850     0.2760     9.1900 ha         1 UNL       0.152000
     43 H16          4.9840    -4.3250     9.8380 ha         1 UNL       0.142500
     44 H17          6.5580    -1.3150     7.3620 ha         1 UNL       0.142500
     45 H18          4.9000    -2.6610     5.9710 ha         1 UNL       0.155000
     46 H19          6.8990    -5.3530     8.5070 ha         1 UNL       0.155000
     47 H20          5.0760    -4.2500     4.1460 ha         1 UNL       0.162500
     48 H21          7.0740    -6.9420     6.6810 ha         1 UNL       0.162500
@<TRIPOS>BOND
     1     1    13 1   
     2     1    15 1   
     3     2    11 2   
     4     3    14 1   
     5     4    14 1   
     6     5     9 1   
     7     5    11 1   
     8     6    27 2   
     9     7    27 1   
    10     8    10 1   
    11     8    11 1   
    12     8    12 1   
    13     9    10 1   
    14     9    13 1   
    15    12    14 1   
    16    15    16 ar  
    17    15    17 ar  
    18    16    19 ar  
    19    17    20 ar  
    20    18    19 ar  
    21    18    20 ar  
    22    18    21 1   
    23    21    22 ar  
    24    21    23 ar  
    25    22    25 ar  
    26    23    26 ar  
    27    24    25 ar  
    28    24    26 ar  
    29    24    27 1   
    30     5    28 1   
    31     6    29 1   
    32     6    30 1   
    33     7    31 1   
    34     7    32 1   
    35     8    33 1   
    36     9    34 1   
    37    10    35 1   
    38    10    36 1   
    39    12    37 1   
    40    12    38 1   
    41    13    39 1   
    42    13    40 1   
    43    16    41 1   
    44    17    42 1   
    45    19    43 1   
    46    20    44 1   
    47    22    45 1   
    48    23    46 1   
    49    25    47 1   
    50    26    48 1   
@<TRIPOS>SUBSTRUCTURE
     1 UNL         1 TEMP              0 ****  ****    0 ROOT
