@<TRIPOS>MOLECULE
5496659
   60    62     1     0     0
SMALL
bcc


@<TRIPOS>ATOM
      1 O1           9.0660    -4.7400    11.3730 os         1 UNL      -0.435900
      2 O2           7.8300    -2.8980    10.7380 o          1 UNL      -0.544000
      3 O3           6.6730    -7.2180    12.7170 o          1 UNL      -0.723100
      4 O4          -3.2380   -10.4630    13.1710 o          1 UNL      -0.533700
      5 N5           6.2360    -6.9450    10.4560 n          1 UNL      -0.551900
      6 N6           7.5610    -6.7700     4.4300 nh         1 UNL      -0.468100
      7 N7           5.4560    -6.3210     3.5210 nh         1 UNL      -0.452200
      8 N8          -2.0480   -10.0480    12.9860 na         1 UNL       0.544300
      9 C9           7.5520    -5.0240     9.5780 c3         1 UNL      -0.123700
     10 C10          7.5540    -6.4840    10.0850 c3         1 UNL       0.109700
     11 C11          6.1370    -4.5520     9.1820 c3         1 UNL      -0.040100
     12 C12          8.5300    -6.6950    11.2420 c3         1 UNL      -0.122100
     13 C13          6.0110    -4.2570     7.7060 ca         1 UNL      -0.076300
     14 C14          8.1440    -4.0760    10.6160 c          1 UNL       0.634100
     15 C15          6.2430    -5.2660     6.7710 ca         1 UNL      -0.074000
     16 C16          5.9050    -7.2770    11.7610 c          1 UNL       0.708700
     17 C17          5.6650    -2.9750     7.2780 ca         1 UNL      -0.065000
     18 C18          6.1290    -4.9930     5.4070 ca         1 UNL      -0.246900
     19 C19          4.5160    -7.7600    11.9740 ca         1 UNL      -0.163600
     20 C20          5.5510    -2.7020     5.9140 ca         1 UNL      -0.120000
     21 C21          5.7830    -3.7110     4.9790 ca         1 UNL      -0.086000
     22 C22          3.4800    -6.8440    12.1570 ca         1 UNL      -0.083500
     23 C23          4.2490    -9.1290    11.9910 ca         1 UNL      -0.083500
     24 C24          1.9080    -8.6670    12.3740 cp         1 UNL       0.017000
     25 C25          6.3720    -6.0440     4.4320 ce         1 UNL       0.513400
     26 C26          9.9780    -3.9110    12.0990 c3         1 UNL       0.123700
     27 C27          2.1760    -7.2980    12.3570 ca         1 UNL      -0.130500
     28 C28          2.9450    -9.5820    12.1920 ca         1 UNL      -0.130500
     29 C29          0.5570    -9.1390    12.5830 cp         1 UNL      -0.109000
     30 C30          0.2950   -10.0900    13.5630 ca         1 UNL      -0.066500
     31 C31         -0.4820    -8.6410    11.8040 ca         1 UNL      -0.066500
     32 C32         -1.0080   -10.5360    13.7540 ca         1 UNL      -0.224300
     33 C33         -1.7770    -9.1030    12.0150 ca         1 UNL      -0.224300
     34 H1           5.5480    -7.0260     9.7570 hn         1 UNL       0.349500
     35 H2           8.2430    -6.5980     3.7410 hn         1 UNL       0.330200
     36 H3           7.7200    -7.4570     5.1190 hn         1 UNL       0.330200
     37 H4           5.6190    -7.0320     2.8600 hn         1 UNL       0.330200
     38 H5           4.6110    -5.8160     3.5040 hn         1 UNL       0.330200
     39 H6           8.1660    -5.0040     8.7030 hc         1 UNL       0.097700
     40 H7           7.8860    -7.0740     9.2560 h1         1 UNL       0.075700
     41 H8           5.9080    -3.6610     9.7300 hc         1 UNL       0.078700
     42 H9           5.4570    -5.3450     9.4120 hc         1 UNL       0.078700
     43 H10          8.2160    -6.1140    12.0840 hc         1 UNL       0.056700
     44 H11          9.5100    -6.3880    10.9420 hc         1 UNL       0.056700
     45 H12          8.5470    -7.7310    11.5100 hc         1 UNL       0.056700
     46 H13          6.4990    -6.2140     7.0870 ha         1 UNL       0.177000
     47 H14          5.4940    -2.2290     7.9690 ha         1 UNL       0.165000
     48 H15          5.2950    -1.7540     5.5980 ha         1 UNL       0.165000
     49 H16          5.6990    -3.5090     3.9710 ha         1 UNL       0.147000
     50 H17          3.6770    -5.8320    12.1440 ha         1 UNL       0.146500
     51 H18          5.0160    -9.8060    11.8560 ha         1 UNL       0.146500
     52 H19         10.6540    -4.5260    12.6560 h1         1 UNL       0.061033
     53 H20          9.4310    -3.2830    12.7720 h1         1 UNL       0.061033
     54 H21         10.5310    -3.3030    11.4140 h1         1 UNL       0.061033
     55 H22          1.4090    -6.6210    12.4920 ha         1 UNL       0.149000
     56 H23          2.7470   -10.5950    12.2050 ha         1 UNL       0.149000
     57 H24          1.0630   -10.4630    14.1440 ha         1 UNL       0.155500
     58 H25         -0.2940    -7.9350    11.0750 ha         1 UNL       0.155500
     59 H26         -1.2020   -11.2420    14.4810 h4         1 UNL       0.193500
     60 H27         -2.5490    -8.7340    11.4370 h4         1 UNL       0.193500
@<TRIPOS>BOND
     1     1    14 1   
     2     1    26 1   
     3     2    14 2   
     4     3    16 2   
     5     4     8 2   
     6     5    10 1   
     7     5    16 1   
     8     6    25 2   
     9     7    25 1   
    10     8    32 1   
    11     8    33 2   
    12     9    10 1   
    13     9    11 1   
    14     9    14 1   
    15    10    12 1   
    16    11    13 1   
    17    13    15 ar  
    18    13    17 ar  
    19    15    18 ar  
    20    16    19 1   
    21    17    20 ar  
    22    18    21 ar  
    23    18    25 1   
    24    19    22 ar  
    25    19    23 ar  
    26    20    21 ar  
    27    22    27 ar  
    28    23    28 ar  
    29    24    27 ar  
    30    24    28 ar  
    31    24    29 1   
    32    29    30 ar  
    33    29    31 ar  
    34    30    32 ar  
    35    31    33 ar  
    36     5    34 1   
    37     6    35 1   
    38     6    36 1   
    39     7    37 1   
    40     7    38 1   
    41     9    39 1   
    42    10    40 1   
    43    11    41 1   
    44    11    42 1   
    45    12    43 1   
    46    12    44 1   
    47    12    45 1   
    48    15    46 1   
    49    17    47 1   
    50    20    48 1   
    51    21    49 1   
    52    22    50 1   
    53    23    51 1   
    54    26    52 1   
    55    26    53 1   
    56    26    54 1   
    57    27    55 1   
    58    28    56 1   
    59    30    57 1   
    60    31    58 1   
    61    32    59 1   
    62    33    60 1   
@<TRIPOS>SUBSTRUCTURE
     1 UNL         1 TEMP              0 ****  ****    0 ROOT
