@<TRIPOS>MOLECULE
5496659
   60    62     1     0     0
SMALL
bcc


@<TRIPOS>ATOM
      1 O1           4.0110     3.6130    11.5010 os         1 UNL      -0.482900
      2 O2           6.0290     3.4520    10.3950 o          1 UNL      -0.509000
      3 O3           7.2430     1.1660     8.7690 o          1 UNL      -0.619100
      4 O4           5.1510    -7.4960     3.3310 o          1 UNL      -0.538700
      5 N5           6.4800    -0.0680    10.5780 n          1 UNL      -0.575900
      6 N6          -0.5840     0.8760    15.0180 nh         1 UNL      -0.472100
      7 N7           0.6480     2.3650    16.3310 nh         1 UNL      -0.456200
      8 N8           5.3650    -6.5040     4.1010 na         1 UNL       0.542300
      9 C9           5.3130     1.6810    11.9090 c3         1 UNL      -0.129700
     10 C10          6.6430     0.9690    11.5700 c3         1 UNL       0.124700
     11 C11          5.1500     1.9090    13.4260 c3         1 UNL      -0.042100
     12 C12          7.3320     0.4060    12.8120 c3         1 UNL      -0.126100
     13 C13          4.0850     1.0300    14.0390 ca         1 UNL      -0.065300
     14 C14          5.1890     3.0080    11.1680 c          1 UNL       0.636100
     15 C15          2.8790     1.5870    14.4640 ca         1 UNL      -0.081000
     16 C16          6.7990     0.1240     9.2430 c          1 UNL       0.675700
     17 C17          4.3080    -0.3400    14.1820 ca         1 UNL      -0.064000
     18 C18          1.8970     0.7760    15.0320 ca         1 UNL      -0.250900
     19 C19          6.5490    -1.0330     8.3440 ca         1 UNL      -0.155600
     20 C20          3.3260    -1.1520    14.7500 ca         1 UNL      -0.116000
     21 C21          2.1200    -0.5940    15.1750 ca         1 UNL      -0.083000
     22 C22          6.1520    -0.8180     7.0240 ca         1 UNL      -0.086000
     23 C23          6.7130    -2.3340     8.8200 ca         1 UNL      -0.086000
     24 C24          6.0810    -3.2050     6.6580 cp         1 UNL       0.009000
     25 C25          0.6400     1.3570    15.4770 ce         1 UNL       0.521400
     26 C26          4.0930     4.5850    12.5480 c3         1 UNL       0.118700
     27 C27          5.9180    -1.9040     6.1810 ca         1 UNL      -0.130000
     28 C28          6.4780    -3.4200     7.9770 ca         1 UNL      -0.130000
     29 C29          5.8360    -4.3320     5.7840 cp         1 UNL      -0.103000
     30 C30          4.8710    -4.2430     4.7870 ca         1 UNL      -0.069000
     31 C31          6.5660    -5.5050     5.9410 ca         1 UNL      -0.069000
     32 C32          4.6450    -5.3340     3.9540 ca         1 UNL      -0.223800
     33 C33          6.3220    -6.5820     5.0940 ca         1 UNL      -0.223800
     34 H1           6.1290    -0.9430    10.8600 hn         1 UNL       0.321500
     35 H2          -0.6100     0.1970    14.3050 hn         1 UNL       0.327450
     36 H3          -1.4230     1.2150    15.4050 hn         1 UNL       0.327450
     37 H4          -0.2020     2.7600    16.6340 hn         1 UNL       0.327450
     38 H5           1.5030     2.7220    16.6650 hn         1 UNL       0.327450
     39 H6           4.5280     1.0300    11.5850 hc         1 UNL       0.110700
     40 H7           7.2730     1.7270    11.1530 h1         1 UNL       0.071700
     41 H8           4.8850     2.9320    13.5920 hc         1 UNL       0.084700
     42 H9           6.0810     1.6600    13.8920 hc         1 UNL       0.084700
     43 H10          6.7180    -0.3550    13.2460 hc         1 UNL       0.061367
     44 H11          7.4840     1.1910    13.5220 hc         1 UNL       0.061367
     45 H12          8.2770    -0.0130    12.5360 hc         1 UNL       0.061367
     46 H13          2.7140     2.6010    14.3590 ha         1 UNL       0.166000
     47 H14          5.2000    -0.7530    13.8670 ha         1 UNL       0.164000
     48 H15          3.4910    -2.1650    14.8550 ha         1 UNL       0.167000
     49 H16          1.3940    -1.1940    15.5950 ha         1 UNL       0.147000
     50 H17          6.0310     0.1440     6.6720 ha         1 UNL       0.145000
     51 H18          7.0070    -2.4920     9.7970 ha         1 UNL       0.145000
     52 H19          3.1210     4.9950    12.7300 h1         1 UNL       0.056033
     53 H20          4.7620     5.3670    12.2580 h1         1 UNL       0.056033
     54 H21          4.4550     4.1180    13.4400 h1         1 UNL       0.056033
     55 H22          5.6240    -1.7450     5.2050 ha         1 UNL       0.146000
     56 H23          6.5980    -4.3820     8.3300 ha         1 UNL       0.146000
     57 H24          4.3260    -3.3750     4.6670 ha         1 UNL       0.155500
     58 H25          7.2840    -5.5770     6.6790 ha         1 UNL       0.155500
     59 H26          3.9290    -5.2680     3.2140 h4         1 UNL       0.192000
     60 H27          6.8630    -7.4520     5.2110 h4         1 UNL       0.192000
@<TRIPOS>BOND
     1     1    14 1   
     2     1    26 1   
     3     2    14 2   
     4     3    16 2   
     5     4     8 2   
     6     5    10 1   
     7     5    16 1   
     8     6    25 2   
     9     7    25 1   
    10     8    32 1   
    11     8    33 2   
    12     9    10 1   
    13     9    11 1   
    14     9    14 1   
    15    10    12 1   
    16    11    13 1   
    17    13    15 ar  
    18    13    17 ar  
    19    15    18 ar  
    20    16    19 1   
    21    17    20 ar  
    22    18    21 ar  
    23    18    25 1   
    24    19    22 ar  
    25    19    23 ar  
    26    20    21 ar  
    27    22    27 ar  
    28    23    28 ar  
    29    24    27 ar  
    30    24    28 ar  
    31    24    29 1   
    32    29    30 ar  
    33    29    31 ar  
    34    30    32 ar  
    35    31    33 ar  
    36     5    34 1   
    37     6    35 1   
    38     6    36 1   
    39     7    37 1   
    40     7    38 1   
    41     9    39 1   
    42    10    40 1   
    43    11    41 1   
    44    11    42 1   
    45    12    43 1   
    46    12    44 1   
    47    12    45 1   
    48    15    46 1   
    49    17    47 1   
    50    20    48 1   
    51    21    49 1   
    52    22    50 1   
    53    23    51 1   
    54    26    52 1   
    55    26    53 1   
    56    26    54 1   
    57    27    55 1   
    58    28    56 1   
    59    30    57 1   
    60    31    58 1   
    61    32    59 1   
    62    33    60 1   
@<TRIPOS>SUBSTRUCTURE
     1 UNL         1 TEMP              0 ****  ****    0 ROOT
