@<TRIPOS>MOLECULE
4413
   45    47     1     0     0
SMALL
bcc


@<TRIPOS>ATOM
      1 O1           6.8030    -1.8770    10.3760 os         1 UNL      -0.363200
      2 O2           4.6860    -0.9220    10.1790 o          1 UNL      -0.489000
      3 N3           5.4220    -6.4660     3.0100 nh         1 UNL      -0.466600
      4 N4           6.7880    -7.7590     4.3980 nh         1 UNL      -0.450700
      5 N5           8.6190     3.9970     9.0760 nh         1 UNL      -0.338200
      6 N6          10.0110     5.7240     9.8090 nh         1 UNL      -0.497200
      7 N7           9.5170     4.0800    11.3120 nh         1 UNL      -0.497200
      8 C8           6.7480    -4.8560     7.4580 ca         1 UNL      -0.062000
      9 C9           6.1840    -3.5870     7.1850 ca         1 UNL       0.014000
     10 C10          6.7220    -5.8480     6.4640 ca         1 UNL      -0.035000
     11 C11          6.2110    -2.5950     8.1780 ca         1 UNL      -0.138000
     12 C12          6.1480    -5.5930     5.2190 ca         1 UNL      -0.255900
     13 C13          5.6110    -3.3470     5.9250 ca         1 UNL      -0.083000
     14 C14          7.3220    -5.0950     8.7180 ca         1 UNL      -0.090000
     15 C15          6.7850    -2.8500     9.4240 ca         1 UNL       0.146100
     16 C16          5.5940    -4.3450     4.9500 ca         1 UNL      -0.113000
     17 C17          7.3390    -4.0980     9.6930 ca         1 UNL      -0.110000
     18 C18          6.1290    -6.6310     4.2000 ce         1 UNL       0.520400
     19 C19          6.6190     0.4390     9.8640 ca         1 UNL      -0.108600
     20 C20          5.9050    -0.8320    10.1470 c          1 UNL       0.654700
     21 C21          5.8800     1.5740     9.6020 ca         1 UNL      -0.049500
     22 C22          7.9990     0.4450     9.8740 ca         1 UNL      -0.049500
     23 C23          7.9460     2.8010     9.3420 ca         1 UNL      -0.029200
     24 C24          6.5510     2.7680     9.3380 ca         1 UNL      -0.141000
     25 C25          8.6700     1.6390     9.6100 ca         1 UNL      -0.141000
     26 C26          9.3340     4.5480    10.0290 cz         1 UNL       0.529300
     27 H1           5.4160    -7.1850     2.3380 hn         1 UNL       0.328450
     28 H2           4.9300    -5.6310     2.8420 hn         1 UNL       0.328450
     29 H3           6.7770    -8.4630     3.7100 hn         1 UNL       0.328450
     30 H4           7.2910    -7.8950     5.2330 hn         1 UNL       0.328450
     31 H5           8.5570     4.4200     8.1890 hn         1 UNL       0.336700
     32 H6           9.8870     6.2120     8.9630 hn         1 UNL       0.331950
     33 H7          10.6190     6.0780    10.4970 hn         1 UNL       0.331950
     34 H8           9.3280     4.6650    12.0810 hn         1 UNL       0.331950
     35 H9           9.8360     3.1600    11.4600 hn         1 UNL       0.331950
     36 H10          7.1310    -6.7750     6.6580 ha         1 UNL       0.150000
     37 H11          5.8010    -1.6670     7.9850 ha         1 UNL       0.176000
     38 H12          5.1980    -2.4240     5.7190 ha         1 UNL       0.168000
     39 H13          7.7340    -6.0190     8.9240 ha         1 UNL       0.156000
     40 H14          5.1700    -4.1570     4.0280 ha         1 UNL       0.152000
     41 H15          7.7630    -4.2860    10.6150 ha         1 UNL       0.167000
     42 H16          4.8490     1.5410     9.6010 ha         1 UNL       0.184000
     43 H17          8.5260    -0.4200    10.0730 ha         1 UNL       0.184000
     44 H18          6.0160     3.6280     9.1400 ha         1 UNL       0.163000
     45 H19          9.7010     1.6630     9.6130 ha         1 UNL       0.163000
@<TRIPOS>BOND
     1     1    15 1   
     2     1    20 1   
     3     2    20 2   
     4     3    18 2   
     5     4    18 1   
     6     5    23 1   
     7     5    26 2   
     8     6    26 1   
     9     7    26 1   
    10     8     9 ar  
    11     8    10 ar  
    12     8    14 ar  
    13     9    11 ar  
    14     9    13 ar  
    15    10    12 ar  
    16    11    15 ar  
    17    12    16 ar  
    18    12    18 1   
    19    13    16 ar  
    20    14    17 ar  
    21    15    17 ar  
    22    19    20 1   
    23    19    21 ar  
    24    19    22 ar  
    25    21    24 ar  
    26    22    25 ar  
    27    23    24 ar  
    28    23    25 ar  
    29     3    27 1   
    30     3    28 1   
    31     4    29 1   
    32     4    30 1   
    33     5    31 1   
    34     6    32 1   
    35     6    33 1   
    36     7    34 1   
    37     7    35 1   
    38    10    36 1   
    39    11    37 1   
    40    13    38 1   
    41    14    39 1   
    42    16    40 1   
    43    17    41 1   
    44    21    42 1   
    45    22    43 1   
    46    24    44 1   
    47    25    45 1   
@<TRIPOS>SUBSTRUCTURE
     1 UNL         1 TEMP              0 ****  ****    0 ROOT
