@<TRIPOS>MOLECULE
4413
   45    47     1     0     0
SMALL
bcc


@<TRIPOS>ATOM
      1 O1           6.3790    -0.8050     8.3860 os         1 UNL      -0.366200
      2 O2           4.4910    -1.7890     9.3350 o          1 UNL      -0.484000
      3 N3           5.9740     6.2010    13.6630 nh         1 UNL      -0.466600
      4 N4           6.8610     4.4410    14.9190 nh         1 UNL      -0.450700
      5 N5           6.9400    -6.4850     5.7540 nh         1 UNL      -0.337200
      6 N6           6.5240    -7.9840     4.0110 nh         1 UNL      -0.497200
      7 N7           5.0680    -6.2430     4.2540 nh         1 UNL      -0.497200
      8 C8           6.7960     1.8410    11.5810 ca         1 UNL      -0.061000
      9 C9           5.9310     2.1590    10.5080 ca         1 UNL       0.010000
     10 C10          6.9250     2.7440    12.6500 ca         1 UNL      -0.033000
     11 C11          5.8020     1.2570     9.4390 ca         1 UNL      -0.132000
     12 C12          6.2110     3.9420    12.6600 ca         1 UNL      -0.255900
     13 C13          5.2190     3.3700    10.5340 ca         1 UNL      -0.085000
     14 C14          7.5080     0.6310    11.5550 ca         1 UNL      -0.085000
     15 C15          6.5170     0.0590     9.4290 ca         1 UNL       0.150100
     16 C16          5.3590     4.2540    11.6040 ca         1 UNL      -0.113000
     17 C17          7.3680    -0.2540    10.4850 ca         1 UNL      -0.115000
     18 C18          6.3550     4.8650    13.7740 ce         1 UNL       0.520400
     19 C19          5.8650    -3.0680     7.8640 ca         1 UNL      -0.108600
     20 C20          5.4790    -1.8480     8.6180 c          1 UNL       0.651700
     21 C21          5.9090    -4.2760     8.5290 ca         1 UNL      -0.049500
     22 C22          6.1650    -2.9560     6.5220 ca         1 UNL      -0.049500
     23 C23          6.5770    -5.3360     6.4640 ca         1 UNL      -0.030200
     24 C24          6.2690    -5.4230     7.8210 ca         1 UNL      -0.141000
     25 C25          6.5250    -4.1030     5.8140 ca         1 UNL      -0.141000
     26 C26          6.2020    -6.8600     4.7360 cz         1 UNL       0.529300
     27 H1           5.7280     6.7120    14.4680 hn         1 UNL       0.328450
     28 H2           5.9500     6.6340    12.7790 hn         1 UNL       0.328450
     29 H3           6.9590     5.0650    15.6740 hn         1 UNL       0.328450
     30 H4           7.1390     3.5020    15.0160 hn         1 UNL       0.328450
     31 H5           7.7350    -7.0030     6.0130 hn         1 UNL       0.336700
     32 H6           6.0230    -8.2010     3.1910 hn         1 UNL       0.331950
     33 H7           7.2540    -8.5710     4.3120 hn         1 UNL       0.331950
     34 H8           4.1920    -6.4370     4.6590 hn         1 UNL       0.331950
     35 H9           5.1340    -5.6090     3.5040 hn         1 UNL       0.331950
     36 H10          7.5550     2.5180    13.4360 ha         1 UNL       0.151000
     37 H11          5.1730     1.4830     8.6530 ha         1 UNL       0.165000
     38 H12          4.5860     3.6070     9.7540 ha         1 UNL       0.165000
     39 H13          8.1410     0.3930    12.3340 ha         1 UNL       0.157000
     40 H14          4.8310     5.1410    11.6130 ha         1 UNL       0.152000
     41 H15          7.8960    -1.1400    10.4760 ha         1 UNL       0.173000
     42 H16          5.6790    -4.3310     9.5340 ha         1 UNL       0.184000
     43 H17          6.1240    -2.0390     6.0500 ha         1 UNL       0.184000
     44 H18          6.3070    -6.3350     8.3020 ha         1 UNL       0.163000
     45 H19          6.7530    -4.0390     4.8100 ha         1 UNL       0.163000
@<TRIPOS>BOND
     1     1    15 1   
     2     1    20 1   
     3     2    20 2   
     4     3    18 2   
     5     4    18 1   
     6     5    23 1   
     7     5    26 2   
     8     6    26 1   
     9     7    26 1   
    10     8     9 ar  
    11     8    10 ar  
    12     8    14 ar  
    13     9    11 ar  
    14     9    13 ar  
    15    10    12 ar  
    16    11    15 ar  
    17    12    16 ar  
    18    12    18 1   
    19    13    16 ar  
    20    14    17 ar  
    21    15    17 ar  
    22    19    20 1   
    23    19    21 ar  
    24    19    22 ar  
    25    21    24 ar  
    26    22    25 ar  
    27    23    24 ar  
    28    23    25 ar  
    29     3    27 1   
    30     3    28 1   
    31     4    29 1   
    32     4    30 1   
    33     5    31 1   
    34     6    32 1   
    35     6    33 1   
    36     7    34 1   
    37     7    35 1   
    38    10    36 1   
    39    11    37 1   
    40    13    38 1   
    41    14    39 1   
    42    16    40 1   
    43    17    41 1   
    44    21    42 1   
    45    22    43 1   
    46    24    44 1   
    47    25    45 1   
@<TRIPOS>SUBSTRUCTURE
     1 UNL         1 TEMP              0 ****  ****    0 ROOT
