@<TRIPOS>MOLECULE
4413
   45    47     1     0     0
SMALL
bcc


@<TRIPOS>ATOM
      1 O1           6.1730    -1.3910    10.2780 os         1 UNL      -0.364200
      2 O2           8.1670    -0.3820     9.6180 o          1 UNL      -0.487000
      3 N3           5.4990    -6.3190     3.0380 nh         1 UNL      -0.466100
      4 N4           7.1260    -7.2990     4.4000 nh         1 UNL      -0.450200
      5 N5           4.7020     4.5190    11.8220 nh         1 UNL      -0.339200
      6 N6           3.2810     5.6500    13.2900 nh         1 UNL      -0.497200
      7 N7           3.4820     3.3950    13.5700 nh         1 UNL      -0.497200
      8 C8           6.5620    -4.4160     7.4350 ca         1 UNL      -0.060000
      9 C9           5.8670    -3.2260     7.1120 ca         1 UNL       0.009000
     10 C10          6.6840    -5.4240     6.4650 ca         1 UNL      -0.033000
     11 C11          5.7440    -2.2170     8.0810 ca         1 UNL      -0.130000
     12 C12          6.1290    -5.2630     5.1950 ca         1 UNL      -0.255900
     13 C13          5.3140    -3.0800     5.8290 ca         1 UNL      -0.084000
     14 C14          7.1150    -4.5610     8.7170 ca         1 UNL      -0.086000
     15 C15          6.3000    -2.3790     9.3510 ca         1 UNL       0.147100
     16 C16          5.4450    -4.0930     4.8780 ca         1 UNL      -0.114000
     17 C17          6.9840    -3.5490     9.6680 ca         1 UNL      -0.114000
     18 C18          6.2650    -6.3170     4.2030 ce         1 UNL       0.520400
     19 C19          6.4290     0.9590    10.5490 ca         1 UNL      -0.109600
     20 C20          7.0440    -0.3150    10.0950 c          1 UNL       0.652700
     21 C21          5.4060     1.5070     9.8030 ca         1 UNL      -0.049000
     22 C22          6.8980     1.5520    11.7030 ca         1 UNL      -0.049000
     23 C23          5.2820     3.3210    11.3940 ca         1 UNL      -0.027200
     24 C24          4.8260     2.7020    10.2300 ca         1 UNL      -0.143000
     25 C25          6.3180     2.7460    12.1300 ca         1 UNL      -0.143000
     26 C26          3.8720     4.4950    12.8380 cz         1 UNL       0.530300
     27 H1           4.8450    -5.6010     2.8780 hn         1 UNL       0.328450
     28 H2           5.6120    -7.0390     2.3760 hn         1 UNL       0.328450
     29 H3           7.2190    -8.0140     3.7290 hn         1 UNL       0.328450
     30 H4           7.6740    -7.3170     5.2180 hn         1 UNL       0.328450
     31 H5           4.9120     5.3670    11.3680 hn         1 UNL       0.336700
     32 H6           2.7830     6.2260    12.6650 hn         1 UNL       0.332200
     33 H7           3.3540     5.9030    14.2390 hn         1 UNL       0.332200
     34 H8           4.1410     2.9050    14.1130 hn         1 UNL       0.332200
     35 H9           2.5430     3.0990    13.5510 hn         1 UNL       0.332200
     36 H10          7.1900    -6.2940     6.6940 ha         1 UNL       0.151000
     37 H11          5.2380    -1.3480     7.8520 ha         1 UNL       0.167000
     38 H12          4.8060    -2.2150     5.5870 ha         1 UNL       0.166000
     39 H13          7.6230    -5.4260     8.9590 ha         1 UNL       0.156000
     40 H14          5.0350    -3.9740     3.9390 ha         1 UNL       0.152000
     41 H15          7.3940    -3.6680    10.6080 ha         1 UNL       0.173000
     42 H16          5.0750     1.0410     8.9430 ha         1 UNL       0.183500
     43 H17          7.6650     1.1190    12.2410 ha         1 UNL       0.183500
     44 H18          4.0600     3.1270     9.6850 ha         1 UNL       0.163000
     45 H19          6.6550     3.2040    12.9910 ha         1 UNL       0.163000
@<TRIPOS>BOND
     1     1    15 1   
     2     1    20 1   
     3     2    20 2   
     4     3    18 2   
     5     4    18 1   
     6     5    23 1   
     7     5    26 2   
     8     6    26 1   
     9     7    26 1   
    10     8     9 ar  
    11     8    10 ar  
    12     8    14 ar  
    13     9    11 ar  
    14     9    13 ar  
    15    10    12 ar  
    16    11    15 ar  
    17    12    16 ar  
    18    12    18 1   
    19    13    16 ar  
    20    14    17 ar  
    21    15    17 ar  
    22    19    20 1   
    23    19    21 ar  
    24    19    22 ar  
    25    21    24 ar  
    26    22    25 ar  
    27    23    24 ar  
    28    23    25 ar  
    29     3    27 1   
    30     3    28 1   
    31     4    29 1   
    32     4    30 1   
    33     5    31 1   
    34     6    32 1   
    35     6    33 1   
    36     7    34 1   
    37     7    35 1   
    38    10    36 1   
    39    11    37 1   
    40    13    38 1   
    41    14    39 1   
    42    16    40 1   
    43    17    41 1   
    44    21    42 1   
    45    22    43 1   
    46    24    44 1   
    47    25    45 1   
@<TRIPOS>SUBSTRUCTURE
     1 UNL         1 TEMP              0 ****  ****    0 ROOT
