@<TRIPOS>MOLECULE
86566678
   65    68     1     0     0
SMALL
bcc


@<TRIPOS>ATOM
      1 O1           8.0450    -4.4010     6.6250 o          1 UNL      -0.714100
      2 O2           6.3870    -7.7720    15.4580 os         1 UNL      -0.334900
      3 O3          10.4740    -5.8150    11.1270 o          1 UNL      -0.783800
      4 O4           9.2400    -7.4900    12.0420 o          1 UNL      -0.783800
      5 O5           8.7850    -2.4740    13.0370 o          1 UNL      -0.519100
      6 N6           6.6830    -6.2760     6.5180 n          1 UNL      -0.534900
      7 N7           8.2680    -5.8350     9.3250 nb         1 UNL      -0.645000
      8 N8           6.5590    -2.2470    12.3300 n          1 UNL      -0.487500
      9 N9           6.5800     3.9520    10.3910 nh         1 UNL      -0.811100
     10 N10          6.5950     2.7990     8.3580 nh         1 UNL      -0.811100
     11 C11          6.1170    -5.2420     4.4020 cx         1 UNL      -0.146700
     12 C12          5.2590    -4.2800     5.1760 cx         1 UNL      -0.127900
     13 C13          4.6360    -5.1840     4.1490 cx         1 UNL      -0.127900
     14 C14          6.7170    -6.4260     5.0810 c3         1 UNL       0.120000
     15 C15          7.3580    -5.2600     7.2080 c          1 UNL       0.599600
     16 C16          7.2450    -5.2580     8.6560 ca         1 UNL       0.338800
     17 C17          6.1400    -4.6900     9.2690 ca         1 UNL      -0.242300
     18 C18          7.1160    -5.2990    11.3820 cp         1 UNL      -0.153300
     19 C19          6.0820    -4.7150    10.6580 ca         1 UNL      -0.111000
     20 C20          8.1770    -5.8410    10.6740 ca         1 UNL       0.398800
     21 C21          7.0570    -5.3270    12.8300 cp         1 UNL       0.054000
     22 C22          7.3010    -4.1790    13.5850 ca         1 UNL      -0.195600
     23 C23          6.7500    -6.5290    13.4670 ca         1 UNL      -0.165000
     24 C24          7.2370    -4.2340    14.9770 ca         1 UNL      -0.055000
     25 C25          9.3040    -6.4730    11.3460 c          1 UNL       0.837100
     26 C26          6.6870    -6.5840    14.8600 ca         1 UNL       0.172100
     27 C27          6.9300    -5.4360    15.6150 ca         1 UNL      -0.089800
     28 C28          7.6240    -2.9020    12.9590 c          1 UNL       0.702700
     29 C29          6.8720    -5.4700    17.0700 ce         1 UNL      -0.090200
     30 C30          6.5650    -0.9950    11.6670 cc         1 UNL       0.183000
     31 C31          5.7870     0.0560    12.1510 cc         1 UNL      -0.192500
     32 C32          7.3510    -0.8140    10.5280 cc         1 UNL      -0.192500
     33 C33          5.0760    -8.2910    15.2430 c3         1 UNL       0.098700
     34 C34          6.5800     1.4690    10.3590 cd         1 UNL      -0.249000
     35 C35          5.7940     1.2880    11.4980 cd         1 UNL      -0.034500
     36 C36          7.3580     0.4180     9.8750 cd         1 UNL      -0.034500
     37 C37          5.7860    -5.2300    17.8300 c2         1 UNL      -0.227000
     38 C38          6.5870     2.7540     9.6780 c2         1 UNL       0.516000
     39 H1           6.1570    -6.9230     7.0400 hn         1 UNL       0.340500
     40 H2           5.6930    -2.7160    12.3510 hn         1 UNL       0.328500
     41 H3           6.7620     4.8020     9.9270 hn         1 UNL       0.476800
     42 H4           6.3930     3.9490    11.3570 hn         1 UNL       0.476800
     43 H5           6.6000     3.6680     7.8950 hn         1 UNL       0.476800
     44 H6           6.5970     1.9640     7.8370 hn         1 UNL       0.476800
     45 H7           6.9930    -5.1530     3.7930 hc         1 UNL       0.083700
     46 H8           5.3310    -3.2290     4.9900 hc         1 UNL       0.076700
     47 H9           5.0890    -4.0850     6.2140 hc         1 UNL       0.076700
     48 H10          4.0080    -5.9930     4.4590 hc         1 UNL       0.076700
     49 H11          4.0210    -5.0380     3.2860 hc         1 UNL       0.076700
     50 H12          6.1660    -7.3010     4.8080 h1         1 UNL       0.049200
     51 H13          7.7390    -6.5120     4.7730 h1         1 UNL       0.049200
     52 H14          5.3840    -4.2610     8.7130 ha         1 UNL       0.138000
     53 H15          5.2750    -4.3010    11.1510 ha         1 UNL       0.124000
     54 H16          6.5710    -7.3780    12.9090 ha         1 UNL       0.190000
     55 H17          7.4180    -3.3850    15.5360 ha         1 UNL       0.143000
     56 H18          7.7470    -5.6980    17.5670 ha         1 UNL       0.144000
     57 H19          5.2060    -0.0780    12.9940 ha         1 UNL       0.174500
     58 H20          7.9270    -1.5920    10.1690 ha         1 UNL       0.174500
     59 H21          4.9710    -9.2200    15.7630 h1         1 UNL       0.061367
     60 H22          4.9220    -8.4480    14.1960 h1         1 UNL       0.061367
     61 H23          4.3520    -7.5930    15.6100 h1         1 UNL       0.061367
     62 H24          5.2190     2.0660    11.8570 ha         1 UNL       0.141500
     63 H25          7.9390     0.5520     9.0320 ha         1 UNL       0.141500
     64 H26          4.8850    -4.9970    17.3840 ha         1 UNL       0.109000
     65 H27          5.8540    -5.2800    18.8590 ha         1 UNL       0.109000
@<TRIPOS>BOND
     1     1    15 2   
     2     2    26 1   
     3     2    33 1   
     4     3    25 1   
     5     4    25 1   
     6     5    28 2   
     7     6    14 1   
     8     6    15 1   
     9     7    16 ar  
    10     7    20 ar  
    11     8    28 1   
    12     8    30 2   
    13     9    38 1   
    14    10    38 1   
    15    11    12 1   
    16    11    13 1   
    17    11    14 1   
    18    12    13 1   
    19    15    16 1   
    20    16    17 ar  
    21    17    19 ar  
    22    18    19 ar  
    23    18    20 ar  
    24    18    21 1   
    25    20    25 1   
    26    21    22 ar  
    27    21    23 ar  
    28    22    24 ar  
    29    22    28 1   
    30    23    26 ar  
    31    24    27 ar  
    32    26    27 ar  
    33    27    29 1   
    34    29    37 2   
    35    30    31 1   
    36    30    32 1   
    37    31    35 2   
    38    32    36 2   
    39    34    35 1   
    40    34    36 1   
    41    34    38 2   
    42     6    39 1   
    43     8    40 1   
    44     9    41 1   
    45     9    42 1   
    46    10    43 1   
    47    10    44 1   
    48    11    45 1   
    49    12    46 1   
    50    12    47 1   
    51    13    48 1   
    52    13    49 1   
    53    14    50 1   
    54    14    51 1   
    55    17    52 1   
    56    19    53 1   
    57    23    54 1   
    58    24    55 1   
    59    29    56 1   
    60    31    57 1   
    61    32    58 1   
    62    33    59 1   
    63    33    60 1   
    64    33    61 1   
    65    35    62 1   
    66    36    63 1   
    67    37    64 1   
    68    37    65 1   
@<TRIPOS>SUBSTRUCTURE
     1 UNL         1 TEMP              0 ****  ****    0 ROOT
