@<TRIPOS>MOLECULE
86566678
   65    68     1     0     0
SMALL
bcc


@<TRIPOS>ATOM
      1 O1           1.4570    -6.4600    11.8170 o          1 UNL      -0.701100
      2 O2           9.6450    -3.4420    14.9620 os         1 UNL      -0.329900
      3 O3           4.3150    -3.2020    13.9470 o          1 UNL      -0.791800
      4 O4           5.9050    -2.6320    12.4260 o          1 UNL      -0.791800
      5 O5           8.4460    -6.6840     9.6920 o          1 UNL      -0.576100
      6 N6           2.2730    -8.6110    12.1070 n          1 UNL      -0.537900
      7 N7           3.8730    -5.3960    12.4530 nb         1 UNL      -0.645000
      8 N8           7.3260    -4.6850     9.1850 n          1 UNL      -0.464500
      9 N9           4.0860    -5.2470     3.5830 nh         1 UNL      -0.824600
     10 N10          6.1390    -6.2360     3.0670 nh         1 UNL      -0.824600
     11 C11          0.2960    -9.2930    13.3270 cx         1 UNL      -0.152700
     12 C12         -1.1740    -8.9830    13.4000 cx         1 UNL      -0.126400
     13 C13         -0.1710    -8.0020    13.9410 cx         1 UNL      -0.126400
     14 C14          1.0000    -9.2880    12.0130 c3         1 UNL       0.116000
     15 C15          2.4230    -7.2220    12.0010 c          1 UNL       0.601600
     16 C16          3.7730    -6.6950    12.0920 ca         1 UNL       0.339800
     17 C17          4.8610    -7.5090    11.8170 ca         1 UNL      -0.232300
     18 C18          6.2740    -5.6200    12.2880 cp         1 UNL      -0.162300
     19 C19          6.1310    -6.9540    11.9190 ca         1 UNL      -0.090000
     20 C20          5.1240    -4.8910    12.5410 ca         1 UNL       0.378800
     21 C21          7.5980    -5.0400    12.3950 cp         1 UNL       0.048000
     22 C22          8.4620    -5.0020    11.3000 ca         1 UNL      -0.181600
     23 C23          8.0040    -4.5130    13.6210 ca         1 UNL      -0.171000
     24 C24          9.7300    -4.4370    11.4310 ca         1 UNL      -0.049000
     25 C25          5.1760    -3.4880    12.9340 c          1 UNL       0.837100
     26 C26          9.2730    -3.9480    13.7520 ca         1 UNL       0.163100
     27 C27         10.1360    -3.9100    12.6570 ca         1 UNL      -0.086800
     28 C28          8.0770    -5.5410    10.0000 c          1 UNL       0.693700
     29 C29         11.4660    -3.3270    12.7700 ce         1 UNL      -0.095200
     30 C30          6.8360    -4.9220     7.8770 cc         1 UNL       0.180000
     31 C31          5.8280    -4.1140     7.3520 cc         1 UNL      -0.192000
     32 C32          7.3630    -5.9640     7.1140 cc         1 UNL      -0.192000
     33 C33         10.7670    -4.0490    15.5990 c3         1 UNL       0.105700
     34 C34          5.8740    -5.3900     5.3010 cd         1 UNL      -0.259000
     35 C35          5.3470    -4.3480     6.0640 cd         1 UNL      -0.045000
     36 C36          6.8820    -6.1980     5.8260 cd         1 UNL      -0.045000
     37 C37         12.5790    -3.9580    13.1940 c2         1 UNL      -0.222000
     38 C38          5.3720    -5.6330     3.9580 c2         1 UNL       0.517000
     39 H1           3.0800    -9.1560    12.2520 hn         1 UNL       0.337500
     40 H2           7.1100    -3.8060     9.5710 hn         1 UNL       0.394500
     41 H3           3.9610    -4.5500     2.8990 hn         1 UNL       0.474550
     42 H4           3.3030    -5.6700     4.0030 hn         1 UNL       0.474550
     43 H5           5.8010    -6.4010     2.1580 hn         1 UNL       0.474550
     44 H6           7.0500    -6.5190     3.3130 hn         1 UNL       0.474550
     45 H7           0.9150   -10.1040    13.6500 hc         1 UNL       0.088700
     46 H8          -1.8030    -9.5290    14.0700 hc         1 UNL       0.075200
     47 H9          -1.9720    -8.9330    12.6900 hc         1 UNL       0.075200
     48 H10         -0.0010    -7.0760    13.4340 hc         1 UNL       0.075200
     49 H11         -0.0220    -7.5150    14.8820 hc         1 UNL       0.075200
     50 H12          1.1640   -10.2980    11.7010 h1         1 UNL       0.053200
     51 H13          0.3900    -8.7680    11.3040 h1         1 UNL       0.053200
     52 H14          4.7310    -8.4960    11.5450 ha         1 UNL       0.144000
     53 H15          6.9650    -7.5290    11.7230 ha         1 UNL       0.145000
     54 H16          7.3660    -4.5410    14.4310 ha         1 UNL       0.168000
     55 H17         10.3690    -4.4090    10.6200 ha         1 UNL       0.149000
     56 H18         11.5660    -2.3370    12.4990 ha         1 UNL       0.142000
     57 H19          5.4380    -3.3430     7.9170 ha         1 UNL       0.203500
     58 H20          8.1090    -6.5620     7.5030 ha         1 UNL       0.203500
     59 H21         10.9530    -3.5620    16.5340 h1         1 UNL       0.054033
     60 H22         11.6280    -3.9560    14.9710 h1         1 UNL       0.054033
     61 H23         10.5610    -5.0850    15.7720 h1         1 UNL       0.054033
     62 H24          4.6010    -3.7490     5.6750 ha         1 UNL       0.134000
     63 H25          7.2720    -6.9690     5.2620 ha         1 UNL       0.134000
     64 H26         12.5350    -4.9490    13.4770 ha         1 UNL       0.111500
     65 H27         13.4760    -3.4490    13.2360 ha         1 UNL       0.111500
@<TRIPOS>BOND
     1     1    15 2   
     2     2    26 1   
     3     2    33 1   
     4     3    25 1   
     5     4    25 1   
     6     5    28 2   
     7     6    14 1   
     8     6    15 1   
     9     7    16 ar  
    10     7    20 ar  
    11     8    28 1   
    12     8    30 2   
    13     9    38 1   
    14    10    38 1   
    15    11    12 1   
    16    11    13 1   
    17    11    14 1   
    18    12    13 1   
    19    15    16 1   
    20    16    17 ar  
    21    17    19 ar  
    22    18    19 ar  
    23    18    20 ar  
    24    18    21 1   
    25    20    25 1   
    26    21    22 ar  
    27    21    23 ar  
    28    22    24 ar  
    29    22    28 1   
    30    23    26 ar  
    31    24    27 ar  
    32    26    27 ar  
    33    27    29 1   
    34    29    37 2   
    35    30    31 1   
    36    30    32 1   
    37    31    35 2   
    38    32    36 2   
    39    34    35 1   
    40    34    36 1   
    41    34    38 2   
    42     6    39 1   
    43     8    40 1   
    44     9    41 1   
    45     9    42 1   
    46    10    43 1   
    47    10    44 1   
    48    11    45 1   
    49    12    46 1   
    50    12    47 1   
    51    13    48 1   
    52    13    49 1   
    53    14    50 1   
    54    14    51 1   
    55    17    52 1   
    56    19    53 1   
    57    23    54 1   
    58    24    55 1   
    59    29    56 1   
    60    31    57 1   
    61    32    58 1   
    62    33    59 1   
    63    33    60 1   
    64    33    61 1   
    65    35    62 1   
    66    36    63 1   
    67    37    64 1   
    68    37    65 1   
@<TRIPOS>SUBSTRUCTURE
     1 UNL         1 TEMP              0 ****  ****    0 ROOT
