@<TRIPOS>MOLECULE
4413
   45    47     1     0     0
SMALL
bcc


@<TRIPOS>ATOM
      1 O1           5.5990    -1.8480     9.7910 os         1 UNL      -0.363200
      2 O2           7.2410    -3.1680    10.7860 o          1 UNL      -0.488000
      3 N3          10.3040     5.3440     8.4460 nh         1 UNL      -0.466600
      4 N4           9.4520     5.6560    10.6000 nh         1 UNL      -0.450700
      5 N5           6.9820    -5.4160     4.8060 nh         1 UNL      -0.338200
      6 N6           5.9500    -6.4990     3.0120 nh         1 UNL      -0.497200
      7 N7           4.6040    -5.7970     4.7150 nh         1 UNL      -0.497200
      8 C8           7.1510     2.0210     9.7170 ca         1 UNL      -0.062000
      9 C9           8.0210     0.9080     9.6320 ca         1 UNL       0.014000
     10 C10          7.6910     3.3180     9.6910 ca         1 UNL      -0.035000
     11 C11          7.4820    -0.3890     9.6590 ca         1 UNL      -0.138000
     12 C12          9.0680     3.5140     9.5820 ca         1 UNL      -0.255900
     13 C13          9.4050     1.1240     9.5230 ca         1 UNL      -0.083000
     14 C14          5.7680     1.8050     9.8270 ca         1 UNL      -0.090000
     15 C15          6.1050    -0.5850     9.7680 ca         1 UNL       0.146100
     16 C16          9.9230     2.4190     9.4980 ca         1 UNL      -0.113000
     17 C17          5.2500     0.5100     9.8520 ca         1 UNL      -0.110000
     18 C18          9.6100     4.8630     9.5550 ce         1 UNL       0.520400
     19 C19          6.6770    -3.5290     8.4980 ca         1 UNL      -0.108600
     20 C20          6.5660    -2.8550     9.8170 c          1 UNL       0.653700
     21 C21          7.2710    -4.7730     8.4320 ca         1 UNL      -0.049500
     22 C22          6.1810    -2.8910     7.3800 ca         1 UNL      -0.049500
     23 C23          6.8790    -4.7820     6.0480 ca         1 UNL      -0.029200
     24 C24          7.3730    -5.4060     7.1940 ca         1 UNL      -0.141000
     25 C25          6.2830    -3.5240     6.1410 ca         1 UNL      -0.141000
     26 C26          5.8930    -5.8690     4.2330 cz         1 UNL       0.529300
     27 H1          10.5810     4.7250     7.7330 hn         1 UNL       0.328450
     28 H2          10.5160     6.3030     8.3760 hn         1 UNL       0.328450
     29 H3           9.8190     6.5700    10.5840 hn         1 UNL       0.328450
     30 H4           8.9680     5.3330    11.3940 hn         1 UNL       0.328450
     31 H5           7.8580    -5.5220     4.3700 hn         1 UNL       0.336700
     32 H6           5.8920    -7.4800     2.9610 hn         1 UNL       0.331950
     33 H7           6.0500    -5.9680     2.1890 hn         1 UNL       0.331950
     34 H8           3.9400    -6.4730     4.4480 hn         1 UNL       0.331950
     35 H9           4.3470    -5.0700     5.3280 hn         1 UNL       0.331950
     36 H10          7.0620     4.1340     9.7530 ha         1 UNL       0.150000
     37 H11          8.1110    -1.2050     9.5970 ha         1 UNL       0.176000
     38 H12         10.0440     0.3160     9.4600 ha         1 UNL       0.168000
     39 H13          5.1290     2.6120     9.8890 ha         1 UNL       0.156000
     40 H14         10.9410     2.5650     9.4170 ha         1 UNL       0.152000
     41 H15          4.2320     0.3640     9.9320 ha         1 UNL       0.167000
     42 H16          7.6330    -5.2260     9.2850 ha         1 UNL       0.184000
     43 H17          5.7420    -1.9600     7.4580 ha         1 UNL       0.184000
     44 H18          7.8140    -6.3370     7.1250 ha         1 UNL       0.163000
     45 H19          5.9170    -3.0630     5.2940 ha         1 UNL       0.163000
@<TRIPOS>BOND
     1     1    15 1   
     2     1    20 1   
     3     2    20 2   
     4     3    18 2   
     5     4    18 1   
     6     5    23 1   
     7     5    26 2   
     8     6    26 1   
     9     7    26 1   
    10     8     9 ar  
    11     8    10 ar  
    12     8    14 ar  
    13     9    11 ar  
    14     9    13 ar  
    15    10    12 ar  
    16    11    15 ar  
    17    12    16 ar  
    18    12    18 1   
    19    13    16 ar  
    20    14    17 ar  
    21    15    17 ar  
    22    19    20 1   
    23    19    21 ar  
    24    19    22 ar  
    25    21    24 ar  
    26    22    25 ar  
    27    23    24 ar  
    28    23    25 ar  
    29     3    27 1   
    30     3    28 1   
    31     4    29 1   
    32     4    30 1   
    33     5    31 1   
    34     6    32 1   
    35     6    33 1   
    36     7    34 1   
    37     7    35 1   
    38    10    36 1   
    39    11    37 1   
    40    13    38 1   
    41    14    39 1   
    42    16    40 1   
    43    17    41 1   
    44    21    42 1   
    45    22    43 1   
    46    24    44 1   
    47    25    45 1   
@<TRIPOS>SUBSTRUCTURE
     1 UNL         1 TEMP              0 ****  ****    0 ROOT
