@<TRIPOS>MOLECULE
86566678
   65    68     1     0     0
SMALL
bcc


@<TRIPOS>ATOM
      1 O1           4.1740    -7.3820    13.8800 o          1 UNL      -0.698100
      2 O2           8.1880     0.7700    13.1110 os         1 UNL      -0.329900
      3 O3           8.9660    -4.2940    12.3100 o          1 UNL      -0.795800
      4 O4           8.4890    -4.3630    10.0890 o          1 UNL      -0.795800
      5 O5           4.4110    -2.3450     9.1290 o          1 UNL      -0.569100
      6 N6           4.5030    -8.0300    11.6780 n          1 UNL      -0.532900
      7 N7           6.2750    -5.6550    11.9950 nb         1 UNL      -0.647000
      8 N8           6.4820    -2.6950     8.0830 n          1 UNL      -0.462500
      9 N9           3.8150    -5.7520     3.0100 nh         1 UNL      -0.820600
     10 N10          5.9930    -6.6000     3.0090 nh         1 UNL      -0.820600
     11 C11          2.5750    -9.4580    12.0080 cx         1 UNL      -0.148700
     12 C12          1.9850    -9.9690    13.2930 cx         1 UNL      -0.127900
     13 C13          1.8730   -10.7880    12.0380 cx         1 UNL      -0.127900
     14 C14          4.0550    -9.3950    11.8360 c3         1 UNL       0.110000
     15 C15          4.5350    -7.0980    12.7230 c          1 UNL       0.599600
     16 C16          4.9890    -5.7570    12.3980 ca         1 UNL       0.339800
     17 C17          4.1230    -4.6810    12.5100 ca         1 UNL      -0.230300
     18 C18          5.9270    -3.2730    11.7680 cp         1 UNL      -0.162300
     19 C19          4.6090    -3.4190    12.1870 ca         1 UNL      -0.090000
     20 C20          6.7120    -4.4120    11.6900 ca         1 UNL       0.383800
     21 C21          6.4350    -1.9580    11.4310 cp         1 UNL       0.049000
     22 C22          6.2980    -1.4380    10.1440 ca         1 UNL      -0.183600
     23 C23          7.0710    -1.2090    12.4220 ca         1 UNL      -0.171000
     24 C24          6.7970    -0.1690     9.8470 ca         1 UNL      -0.050000
     25 C25          8.1030    -4.3570    11.2600 c          1 UNL       0.838100
     26 C26          7.5690     0.0600    12.1250 ca         1 UNL       0.162100
     27 C27          7.4320     0.5790    10.8380 ca         1 UNL      -0.086800
     28 C28          5.6400    -2.1870     9.0790 c          1 UNL       0.693700
     29 C29          7.9470     1.9010    10.5040 ce         1 UNL      -0.095200
     30 C30          6.1350    -3.4730     6.9510 cc         1 UNL       0.184000
     31 C31          6.5490    -4.8020     6.8650 cc         1 UNL      -0.189500
     32 C32          5.3800    -2.9090     5.9230 cc         1 UNL      -0.189500
     33 C33          9.6110     0.6970    13.1650 c3         1 UNL       0.106700
     34 C34          5.4510    -5.0040     4.7220 cd         1 UNL      -0.262000
     35 C35          6.2060    -5.5680     5.7500 cd         1 UNL      -0.042000
     36 C36          5.0380    -3.6750     4.8080 cd         1 UNL      -0.042000
     37 C37          7.4930     2.7090     9.5250 c2         1 UNL      -0.221000
     38 C38          5.0950    -5.8030     3.5600 c2         1 UNL       0.519000
     39 H1           4.8030    -7.7390    10.7860 hn         1 UNL       0.334500
     40 H2           7.4390    -2.4840     8.1820 hn         1 UNL       0.392500
     41 H3           3.0480    -6.1080     3.5150 hn         1 UNL       0.473550
     42 H4           3.6780    -5.3600     2.1180 hn         1 UNL       0.473550
     43 H5           5.7540    -7.1410     2.2220 hn         1 UNL       0.473550
     44 H6           6.9010    -6.6520     3.3840 hn         1 UNL       0.473550
     45 H7           2.4750    -8.5620    11.4320 hc         1 UNL       0.092700
     46 H8           1.1150    -9.5000    13.7060 hc         1 UNL       0.069450
     47 H9           2.3580   -10.1440    14.2800 hc         1 UNL       0.069450
     48 H10          2.4350   -11.6920    11.9380 hc         1 UNL       0.069450
     49 H11          1.0650   -11.2290    11.4920 hc         1 UNL       0.069450
     50 H12          4.5260    -9.8200    12.6970 h1         1 UNL       0.060700
     51 H13          4.3170    -9.9420    10.9550 h1         1 UNL       0.060700
     52 H14          3.1490    -4.8120    12.8240 ha         1 UNL       0.145000
     53 H15          3.9940    -2.5930    12.2580 ha         1 UNL       0.146000
     54 H16          7.1720    -1.5940    13.3740 ha         1 UNL       0.167000
     55 H17          6.6950     0.2150     8.8950 ha         1 UNL       0.148000
     56 H18          8.7340     2.2520    11.0710 ha         1 UNL       0.141000
     57 H19          7.1080    -5.2190     7.6260 ha         1 UNL       0.197000
     58 H20          5.0740    -1.9260     5.9870 ha         1 UNL       0.197000
     59 H21          9.9680     1.2940    13.9770 h1         1 UNL       0.053700
     60 H22         10.0210     1.0620    12.2460 h1         1 UNL       0.053700
     61 H23          9.9110    -0.3200    13.3100 h1         1 UNL       0.053700
     62 H24          6.5120    -6.5520     5.6870 ha         1 UNL       0.134500
     63 H25          4.4790    -3.2580     4.0480 ha         1 UNL       0.134500
     64 H26          6.7080     2.4060     8.9290 ha         1 UNL       0.111500
     65 H27          7.9320     3.6310     9.3730 ha         1 UNL       0.111500
@<TRIPOS>BOND
     1     1    15 2   
     2     2    26 1   
     3     2    33 1   
     4     3    25 1   
     5     4    25 1   
     6     5    28 2   
     7     6    14 1   
     8     6    15 1   
     9     7    16 ar  
    10     7    20 ar  
    11     8    28 1   
    12     8    30 2   
    13     9    38 1   
    14    10    38 1   
    15    11    12 1   
    16    11    13 1   
    17    11    14 1   
    18    12    13 1   
    19    15    16 1   
    20    16    17 ar  
    21    17    19 ar  
    22    18    19 ar  
    23    18    20 ar  
    24    18    21 1   
    25    20    25 1   
    26    21    22 ar  
    27    21    23 ar  
    28    22    24 ar  
    29    22    28 1   
    30    23    26 ar  
    31    24    27 ar  
    32    26    27 ar  
    33    27    29 1   
    34    29    37 2   
    35    30    31 1   
    36    30    32 1   
    37    31    35 2   
    38    32    36 2   
    39    34    35 1   
    40    34    36 1   
    41    34    38 2   
    42     6    39 1   
    43     8    40 1   
    44     9    41 1   
    45     9    42 1   
    46    10    43 1   
    47    10    44 1   
    48    11    45 1   
    49    12    46 1   
    50    12    47 1   
    51    13    48 1   
    52    13    49 1   
    53    14    50 1   
    54    14    51 1   
    55    17    52 1   
    56    19    53 1   
    57    23    54 1   
    58    24    55 1   
    59    29    56 1   
    60    31    57 1   
    61    32    58 1   
    62    33    59 1   
    63    33    60 1   
    64    33    61 1   
    65    35    62 1   
    66    36    63 1   
    67    37    64 1   
    68    37    65 1   
@<TRIPOS>SUBSTRUCTURE
     1 UNL         1 TEMP              0 ****  ****    0 ROOT
