@<TRIPOS>MOLECULE
86566678
   65    68     1     0     0
SMALL
bcc


@<TRIPOS>ATOM
      1 O1           6.2720    -7.4520    13.6030 o          1 UNL      -0.629100
      2 O2           6.8500     1.5980    12.8670 os         1 UNL      -0.326900
      3 O3           2.5960    -3.8630    11.0810 o          1 UNL      -0.795800
      4 O4           3.3370    -1.8010    11.6840 o          1 UNL      -0.795800
      5 O5           4.2180    -2.1780     8.5640 o          1 UNL      -0.551100
      6 N6           5.1780    -7.8570    11.5990 n          1 UNL      -0.540900
      7 N7           4.7630    -4.9660    12.0000 nb         1 UNL      -0.651000
      8 N8           6.4740    -2.7410     8.2470 n          1 UNL      -0.449500
      9 N9           5.4150    -6.4530     3.0230 nh         1 UNL      -0.838100
     10 N10          6.9610    -7.7260     4.2270 nh         1 UNL      -0.838100
     11 C11          3.6730    -9.7160    11.2180 cx         1 UNL      -0.154700
     12 C12          2.4710    -9.9060    12.1010 cx         1 UNL      -0.128400
     13 C13          3.1520   -11.0990    11.4930 cx         1 UNL      -0.128400
     14 C14          4.9710    -9.2720    11.8040 c3         1 UNL       0.109000
     15 C15          5.8240    -7.0260    12.5240 c          1 UNL       0.570600
     16 C16          5.9330    -5.6180    12.1830 ca         1 UNL       0.354800
     17 C17          7.1790    -5.0230    12.0640 ca         1 UNL      -0.235300
     18 C18          6.0440    -2.9680    11.5400 cp         1 UNL      -0.183300
     19 C19          7.2270    -3.6720    11.7360 ca         1 UNL      -0.111000
     20 C20          4.8490    -3.6550    11.6820 ca         1 UNL       0.391800
     21 C21          6.0920    -1.5600    11.1980 cp         1 UNL       0.070000
     22 C22          5.7920    -1.1190     9.9090 ca         1 UNL      -0.164600
     23 C23          6.4460    -0.6400    12.1860 ca         1 UNL      -0.203000
     24 C24          5.8460     0.2420     9.6080 ca         1 UNL      -0.043000
     25 C25          3.5610    -2.9990    11.4960 c          1 UNL       0.834100
     26 C26          6.5000     0.7210    11.8840 ca         1 UNL       0.163100
     27 C27          6.2000     1.1620    10.5950 ca         1 UNL      -0.087800
     28 C28          5.4170    -2.0460     8.8480 c          1 UNL       0.730700
     29 C29          6.2520     2.5780    10.2560 ce         1 UNL      -0.100200
     30 C30          6.4140    -3.7130     7.2180 cc         1 UNL       0.222000
     31 C31          5.7420    -3.4300     6.0290 cc         1 UNL      -0.167500
     32 C32          7.0260    -4.9530     7.3950 cc         1 UNL      -0.167500
     33 C33          5.8390     2.4930    13.3260 c3         1 UNL       0.110700
     34 C34          6.2960    -5.6280     5.1930 cd         1 UNL      -0.263000
     35 C35          5.6830    -4.3880     5.0160 cd         1 UNL      -0.036500
     36 C36          6.9680    -5.9110     6.3820 cd         1 UNL      -0.036500
     37 C37          7.1400     3.1690     9.4330 c2         1 UNL      -0.215000
     38 C38          6.2340    -6.6270     4.1370 c2         1 UNL       0.524000
     39 H1           4.8480    -7.4540    10.7640 hn         1 UNL       0.329500
     40 H2           7.3740    -2.5260     8.5820 hn         1 UNL       0.328500
     41 H3           5.4490    -7.1000     2.2820 hn         1 UNL       0.468300
     42 H4           4.8020    -5.6840     2.9770 hn         1 UNL       0.468300
     43 H5           6.9210    -8.4030     3.5140 hn         1 UNL       0.468300
     44 H6           7.5440    -7.8680     5.0080 hn         1 UNL       0.468300
     45 H7           3.8830    -9.1470    10.3370 hc         1 UNL       0.079700
     46 H8           1.5020    -9.6090    11.7560 hc         1 UNL       0.071950
     47 H9           2.2070    -9.6100    13.0950 hc         1 UNL       0.071950
     48 H10          3.7120   -11.7690    12.1120 hc         1 UNL       0.071950
     49 H11          2.8380   -11.9230    10.8870 hc         1 UNL       0.071950
     50 H12          4.9680    -9.4770    12.8540 h1         1 UNL       0.062200
     51 H13          5.7620    -9.8050    11.3180 h1         1 UNL       0.062200
     52 H14          8.0440    -5.5650    12.2140 ha         1 UNL       0.152000
     53 H15          8.1360    -3.1950    11.6390 ha         1 UNL       0.137000
     54 H16          6.6680    -0.9670    13.1390 ha         1 UNL       0.150000
     55 H17          5.6250     0.5690     8.6540 ha         1 UNL       0.158000
     56 H18          5.5390     3.1870    10.6880 ha         1 UNL       0.137000
     57 H19          5.2880    -2.5120     5.8980 ha         1 UNL       0.184500
     58 H20          7.5240    -5.1630     8.2750 ha         1 UNL       0.184500
     59 H21          6.2410     3.1230    14.0910 h1         1 UNL       0.049367
     60 H22          5.0180     1.9320    13.7200 h1         1 UNL       0.049367
     61 H23          5.5000     3.0960    12.5090 h1         1 UNL       0.049367
     62 H24          5.1860    -4.1790     4.1360 ha         1 UNL       0.131000
     63 H25          7.4210    -6.8290     6.5130 ha         1 UNL       0.131000
     64 H26          7.8740     2.6050     8.9760 ha         1 UNL       0.114000
     65 H27          7.0870     4.1850     9.2610 ha         1 UNL       0.114000
@<TRIPOS>BOND
     1     1    15 2   
     2     2    26 1   
     3     2    33 1   
     4     3    25 1   
     5     4    25 1   
     6     5    28 2   
     7     6    14 1   
     8     6    15 1   
     9     7    16 ar  
    10     7    20 ar  
    11     8    28 1   
    12     8    30 2   
    13     9    38 1   
    14    10    38 1   
    15    11    12 1   
    16    11    13 1   
    17    11    14 1   
    18    12    13 1   
    19    15    16 1   
    20    16    17 ar  
    21    17    19 ar  
    22    18    19 ar  
    23    18    20 ar  
    24    18    21 1   
    25    20    25 1   
    26    21    22 ar  
    27    21    23 ar  
    28    22    24 ar  
    29    22    28 1   
    30    23    26 ar  
    31    24    27 ar  
    32    26    27 ar  
    33    27    29 1   
    34    29    37 2   
    35    30    31 1   
    36    30    32 1   
    37    31    35 2   
    38    32    36 2   
    39    34    35 1   
    40    34    36 1   
    41    34    38 2   
    42     6    39 1   
    43     8    40 1   
    44     9    41 1   
    45     9    42 1   
    46    10    43 1   
    47    10    44 1   
    48    11    45 1   
    49    12    46 1   
    50    12    47 1   
    51    13    48 1   
    52    13    49 1   
    53    14    50 1   
    54    14    51 1   
    55    17    52 1   
    56    19    53 1   
    57    23    54 1   
    58    24    55 1   
    59    29    56 1   
    60    31    57 1   
    61    32    58 1   
    62    33    59 1   
    63    33    60 1   
    64    33    61 1   
    65    35    62 1   
    66    36    63 1   
    67    37    64 1   
    68    37    65 1   
@<TRIPOS>SUBSTRUCTURE
     1 UNL         1 TEMP              0 ****  ****    0 ROOT
