@<TRIPOS>MOLECULE
4413
   45    47     1     0     0
SMALL
bcc


@<TRIPOS>ATOM
      1 O1           6.6020    -1.5520    10.1910 os         1 UNL      -0.363200
      2 O2           4.3930    -2.2690     9.9930 o          1 UNL      -0.489000
      3 N3           3.0250     5.7980    13.0390 nh         1 UNL      -0.466600
      4 N4           5.2880     6.3780    13.0000 nh         1 UNL      -0.450700
      5 N5           7.5320    -6.0860     5.9390 nh         1 UNL      -0.338200
      6 N6           7.1810    -7.3980     4.0380 nh         1 UNL      -0.497200
      7 N7           5.4390    -6.1020     4.7430 nh         1 UNL      -0.497200
      8 C8           5.4830     2.3810    11.0080 ca         1 UNL      -0.062000
      9 C9           5.5060     1.4210    12.0480 ca         1 UNL       0.014000
     10 C10          5.1050     3.7010    11.3000 ca         1 UNL      -0.035000
     11 C11          5.8840     0.1000    11.7550 ca         1 UNL      -0.138000
     12 C12          4.7530     4.0700    12.5990 ca         1 UNL      -0.255900
     13 C13          5.1490     1.8100    13.3490 ca         1 UNL      -0.083000
     14 C14          5.8400     1.9920     9.7070 ca         1 UNL      -0.090000
     15 C15          6.2360    -0.2680    10.4570 ca         1 UNL       0.146100
     16 C16          4.7750     3.1260    13.6220 ca         1 UNL      -0.113000
     17 C17          6.2140     0.6760     9.4340 ca         1 UNL      -0.110000
     18 C18          4.3630     5.4420    12.8860 ce         1 UNL       0.520400
     19 C19          6.0900    -3.3340     8.7010 ca         1 UNL      -0.108600
     20 C20          5.5730    -2.3510     9.6870 c          1 UNL       0.654700
     21 C21          6.1650    -4.6640     9.0620 ca         1 UNL      -0.049500
     22 C22          6.4770    -2.8870     7.4540 ca         1 UNL      -0.049500
     23 C23          7.0470    -5.1610     6.8680 ca         1 UNL      -0.029200
     24 C24          6.6490    -5.5870     8.1350 ca         1 UNL      -0.141000
     25 C25          6.9610    -3.8110     6.5270 ca         1 UNL      -0.141000
     26 C26          6.7420    -6.4890     4.9720 cz         1 UNL       0.529300
     27 H1           2.7590     6.7450    12.9950 hn         1 UNL       0.328450
     28 H2           2.3450     5.1030    13.1920 hn         1 UNL       0.328450
     29 H3           5.0270     7.3070    13.1940 hn         1 UNL       0.328450
     30 H4           6.2390     6.1470    12.8920 hn         1 UNL       0.328450
     31 H5           8.4520    -6.4300     6.0090 hn         1 UNL       0.336700
     32 H6           7.0430    -7.2230     3.0790 hn         1 UNL       0.331950
     33 H7           7.6320    -8.2230     4.3290 hn         1 UNL       0.331950
     34 H8           4.6970    -6.6110     5.1410 hn         1 UNL       0.331950
     35 H9           5.2510    -5.3160     4.1800 hn         1 UNL       0.331950
     36 H10          5.0860     4.4060    10.5470 ha         1 UNL       0.150000
     37 H11          5.9030    -0.6050    12.5090 ha         1 UNL       0.176000
     38 H12          5.1630     1.1140    14.1120 ha         1 UNL       0.168000
     39 H13          5.8260     2.6870     8.9440 ha         1 UNL       0.156000
     40 H14          4.5150     3.4000    14.5820 ha         1 UNL       0.152000
     41 H15          6.4740     0.4020     8.4740 ha         1 UNL       0.167000
     42 H16          5.8690    -4.9700    10.0020 ha         1 UNL       0.184000
     43 H17          6.4110    -1.8870     7.2120 ha         1 UNL       0.184000
     44 H18          6.7120    -6.5860     8.3870 ha         1 UNL       0.163000
     45 H19          7.2550    -3.4960     5.5900 ha         1 UNL       0.163000
@<TRIPOS>BOND
     1     1    15 1   
     2     1    20 1   
     3     2    20 2   
     4     3    18 2   
     5     4    18 1   
     6     5    23 1   
     7     5    26 2   
     8     6    26 1   
     9     7    26 1   
    10     8     9 ar  
    11     8    10 ar  
    12     8    14 ar  
    13     9    11 ar  
    14     9    13 ar  
    15    10    12 ar  
    16    11    15 ar  
    17    12    16 ar  
    18    12    18 1   
    19    13    16 ar  
    20    14    17 ar  
    21    15    17 ar  
    22    19    20 1   
    23    19    21 ar  
    24    19    22 ar  
    25    21    24 ar  
    26    22    25 ar  
    27    23    24 ar  
    28    23    25 ar  
    29     3    27 1   
    30     3    28 1   
    31     4    29 1   
    32     4    30 1   
    33     5    31 1   
    34     6    32 1   
    35     6    33 1   
    36     7    34 1   
    37     7    35 1   
    38    10    36 1   
    39    11    37 1   
    40    13    38 1   
    41    14    39 1   
    42    16    40 1   
    43    17    41 1   
    44    21    42 1   
    45    22    43 1   
    46    24    44 1   
    47    25    45 1   
@<TRIPOS>SUBSTRUCTURE
     1 UNL         1 TEMP              0 ****  ****    0 ROOT
