@<TRIPOS>MOLECULE
86566678
   65    68     1     0     0
SMALL
bcc


@<TRIPOS>ATOM
      1 O1           2.7470    -5.7640    13.6960 o          1 UNL      -0.676100
      2 O2           5.5870     2.6400    11.8220 os         1 UNL      -0.342900
      3 O3           7.7000    -3.6240    12.7140 o          1 UNL      -0.784800
      4 O4           7.1000    -1.5110    13.2990 o          1 UNL      -0.784800
      5 O5           7.5960    -2.7630     9.2660 o          1 UNL      -0.526100
      6 N6           3.2670    -6.7770    11.6750 n          1 UNL      -0.541900
      7 N7           4.9960    -4.0870    12.6100 nb         1 UNL      -0.634000
      8 N8           5.8840    -2.2200     7.7560 n          1 UNL      -0.462500
      9 N9           7.1890    -7.3660     4.0140 nh         1 UNL      -0.829600
     10 N10          5.2730    -6.4920     3.0010 nh         1 UNL      -0.829600
     11 C11          3.4050    -9.1500    11.2130 cx         1 UNL      -0.160700
     12 C12          3.2220   -10.5940    11.5900 cx         1 UNL      -0.126900
     13 C13          4.5470    -9.9210    11.8150 cx         1 UNL      -0.126900
     14 C14          2.7260    -8.0780    11.9960 c3         1 UNL       0.110000
     15 C15          3.2430    -5.6880    12.5560 c          1 UNL       0.600600
     16 C16          3.8050    -4.4370    12.0770 ca         1 UNL       0.343800
     17 C17          3.1270    -3.6850    11.1310 ca         1 UNL      -0.253300
     18 C18          4.9350    -2.1020    11.2320 cp         1 UNL      -0.164300
     19 C19          3.7090    -2.4960    10.7060 ca         1 UNL      -0.108000
     20 C20          5.5310    -2.9250    12.1730 ca         1 UNL       0.392800
     21 C21          5.5440    -0.8620    10.7900 cp         1 UNL       0.028000
     22 C22          6.3760    -0.8240     9.6720 ca         1 UNL      -0.123600
     23 C23          5.2840     0.3070    11.5060 ca         1 UNL      -0.136000
     24 C24          6.9490     0.3820     9.2690 ca         1 UNL      -0.065000
     25 C25          6.8150    -2.5930    12.7790 c          1 UNL       0.834100
     26 C26          5.8560     1.5130    11.1030 ca         1 UNL       0.122100
     27 C27          6.6890     1.5510     9.9850 ca         1 UNL      -0.075800
     28 C28          6.6740    -2.0230     8.8950 c          1 UNL       0.729700
     29 C29          7.3000     2.7990     9.5460 ce         1 UNL      -0.123200
     30 C30          5.9570    -3.2690     6.8070 cc         1 UNL       0.194000
     31 C31          6.8700    -4.3090     6.9850 cc         1 UNL      -0.175500
     32 C32          5.1170    -3.2610     5.6930 cc         1 UNL      -0.175500
     33 C33          4.7010     3.5870    11.2300 c3         1 UNL       0.114700
     34 C34          6.1010    -5.3340     4.9360 cd         1 UNL      -0.251000
     35 C35          6.9410    -5.3410     6.0500 cd         1 UNL      -0.033500
     36 C36          5.1880    -4.2940     4.7580 cd         1 UNL      -0.033500
     37 C37          8.3210     3.4410    10.1470 c2         1 UNL      -0.195000
     38 C38          6.1760    -6.4110     3.9620 c2         1 UNL       0.519000
     39 H1           3.6740    -6.6480    10.7890 hn         1 UNL       0.322500
     40 H2           5.1880    -1.5420     7.5940 hn         1 UNL       0.314500
     41 H3           7.4010    -7.8130     4.8650 hn         1 UNL       0.473550
     42 H4           7.6930    -7.5940     3.1990 hn         1 UNL       0.473550
     43 H5           5.3230    -7.2210     2.3400 hn         1 UNL       0.473550
     44 H6           4.5520    -5.8250     2.9450 hn         1 UNL       0.473550
     45 H7           3.2650    -8.5780    10.3200 hc         1 UNL       0.091700
     46 H8           3.1230   -11.3380    10.8280 hc         1 UNL       0.073700
     47 H9           2.5340   -11.1340    12.2070 hc         1 UNL       0.073700
     48 H10          4.8740    -9.7020    12.8100 hc         1 UNL       0.073700
     49 H11          5.5570   -10.1240    11.5270 hc         1 UNL       0.073700
     50 H12          1.6810    -8.0880    11.7690 h1         1 UNL       0.060700
     51 H13          2.8870    -8.2650    13.0370 h1         1 UNL       0.060700
     52 H14          2.2180    -3.9970    10.7550 ha         1 UNL       0.141000
     53 H15          3.2340    -1.9090    10.0030 ha         1 UNL       0.135000
     54 H16          4.6680     0.2790    12.3340 ha         1 UNL       0.154000
     55 H17          7.5650     0.4100     8.4420 ha         1 UNL       0.157000
     56 H18          6.9140     3.2320     8.6930 ha         1 UNL       0.122000
     57 H19          7.4920    -4.3140     7.8080 ha         1 UNL       0.181000
     58 H20          4.4420    -2.4920     5.5620 ha         1 UNL       0.181000
     59 H21          4.5750     4.4190    11.8920 h1         1 UNL       0.040700
     60 H22          3.7520     3.1260    11.0540 h1         1 UNL       0.040700
     61 H23          5.1100     3.9280    10.3020 h1         1 UNL       0.040700
     62 H24          7.6160    -6.1110     6.1810 ha         1 UNL       0.136000
     63 H25          4.5670    -4.2880     3.9350 ha         1 UNL       0.136000
     64 H26          8.7430     3.0500    11.0040 ha         1 UNL       0.123000
     65 H27          8.6800     4.3240     9.7510 ha         1 UNL       0.123000
@<TRIPOS>BOND
     1     1    15 2   
     2     2    26 1   
     3     2    33 1   
     4     3    25 1   
     5     4    25 1   
     6     5    28 2   
     7     6    14 1   
     8     6    15 1   
     9     7    16 ar  
    10     7    20 ar  
    11     8    28 1   
    12     8    30 2   
    13     9    38 1   
    14    10    38 1   
    15    11    12 1   
    16    11    13 1   
    17    11    14 1   
    18    12    13 1   
    19    15    16 1   
    20    16    17 ar  
    21    17    19 ar  
    22    18    19 ar  
    23    18    20 ar  
    24    18    21 1   
    25    20    25 1   
    26    21    22 ar  
    27    21    23 ar  
    28    22    24 ar  
    29    22    28 1   
    30    23    26 ar  
    31    24    27 ar  
    32    26    27 ar  
    33    27    29 1   
    34    29    37 2   
    35    30    31 1   
    36    30    32 1   
    37    31    35 2   
    38    32    36 2   
    39    34    35 1   
    40    34    36 1   
    41    34    38 2   
    42     6    39 1   
    43     8    40 1   
    44     9    41 1   
    45     9    42 1   
    46    10    43 1   
    47    10    44 1   
    48    11    45 1   
    49    12    46 1   
    50    12    47 1   
    51    13    48 1   
    52    13    49 1   
    53    14    50 1   
    54    14    51 1   
    55    17    52 1   
    56    19    53 1   
    57    23    54 1   
    58    24    55 1   
    59    29    56 1   
    60    31    57 1   
    61    32    58 1   
    62    33    59 1   
    63    33    60 1   
    64    33    61 1   
    65    35    62 1   
    66    36    63 1   
    67    37    64 1   
    68    37    65 1   
@<TRIPOS>SUBSTRUCTURE
     1 UNL         1 TEMP              0 ****  ****    0 ROOT
