@<TRIPOS>MOLECULE
86566678
   65    68     1     0     0
SMALL
bcc


@<TRIPOS>ATOM
      1 O1           6.3120    -7.5460    13.2900 o          1 UNL      -0.624100
      2 O2           7.4740     1.8480    12.3550 os         1 UNL      -0.329900
      3 O3           4.1970    -2.4830    13.4230 o          1 UNL      -0.817300
      4 O4           5.9480    -1.6170    14.5850 o          1 UNL      -0.817300
      5 O5           4.8220    -3.0340     9.3650 o          1 UNL      -0.575100
      6 N6           8.5140    -7.1290    13.8870 n          1 UNL      -0.546900
      7 N7           6.4360    -4.5520    13.4550 nb         1 UNL      -0.664000
      8 N8           6.7110    -2.7070     8.0120 n          1 UNL      -0.476500
      9 N9           6.7950    -7.9720     4.2080 nh         1 UNL      -0.819100
     10 N10          5.4060    -6.5210     3.0130 nh         1 UNL      -0.819100
     11 C11          9.4120    -9.3410    13.4830 cx         1 UNL      -0.157700
     12 C12          8.7530    -9.5970    12.1560 cx         1 UNL      -0.125900
     13 C13          8.8000   -10.6840    13.1930 cx         1 UNL      -0.125900
     14 C14          8.7780    -8.4240    14.4720 c3         1 UNL       0.114000
     15 C15          7.2820    -6.7670    13.3260 c          1 UNL       0.571600
     16 C16          7.1820    -5.4350    12.7550 ca         1 UNL       0.351800
     17 C17          7.8280    -5.1350    11.5670 ca         1 UNL      -0.212300
     18 C18          6.9400    -2.9070    11.7560 cp         1 UNL      -0.141300
     19 C19          7.6990    -3.8440    11.0640 ca         1 UNL      -0.105000
     20 C20          6.3340    -3.3080    12.9360 ca         1 UNL       0.383800
     21 C21          6.8040    -1.5610    11.2340 cp         1 UNL       0.042000
     22 C22          6.2900    -1.3300     9.9580 ca         1 UNL      -0.176600
     23 C23          7.1990    -0.4880    12.0320 ca         1 UNL      -0.186000
     24 C24          6.1710    -0.0250     9.4810 ca         1 UNL      -0.073000
     25 C25          5.5190    -2.3950    13.7280 c          1 UNL       0.841100
     26 C26          7.0800     0.8170    11.5550 ca         1 UNL       0.166100
     27 C27          6.5660     1.0490    10.2790 ca         1 UNL      -0.082800
     28 C28          5.8660    -2.4230     9.0910 c          1 UNL       0.690700
     29 C29          6.4340     2.4030     9.7580 ce         1 UNL      -0.116200
     30 C30          6.5720    -3.7170     7.0280 cc         1 UNL       0.141000
     31 C31          7.2100    -4.9460     7.1950 cc         1 UNL      -0.180500
     32 C32          5.7970    -3.4810     5.8930 cc         1 UNL      -0.180500
     33 C33          6.4530     2.7130    12.8470 c3         1 UNL       0.099700
     34 C34          6.2960    -5.7040     5.0900 cd         1 UNL      -0.214000
     35 C35          7.0720    -5.9400     6.2260 cd         1 UNL      -0.022000
     36 C36          5.6590    -4.4750     4.9240 cd         1 UNL      -0.022000
     37 C37          7.3890     3.3530     9.7560 c2         1 UNL      -0.190000
     38 C38          6.1530    -6.7410     4.0800 c2         1 UNL       0.500000
     39 H1           9.2400    -6.4640    13.8830 hn         1 UNL       0.327500
     40 H2           7.5050    -2.1310     7.9260 hn         1 UNL       0.322500
     41 H3           6.6240    -8.6860     3.5520 hn         1 UNL       0.480050
     42 H4           7.4180    -8.1270     4.9540 hn         1 UNL       0.480050
     43 H5           5.3070    -7.2210     2.3280 hn         1 UNL       0.480050
     44 H6           4.9470    -5.6570     2.9030 hn         1 UNL       0.480050
     45 H7          10.3780    -9.0010    13.7950 hc         1 UNL       0.080700
     46 H8           9.3480    -9.6770    11.2700 hc         1 UNL       0.073450
     47 H9           7.9780    -9.1220    11.5920 hc         1 UNL       0.073450
     48 H10          7.9040   -10.9820    13.6960 hc         1 UNL       0.073450
     49 H11          9.1490   -11.6950    13.2140 hc         1 UNL       0.073450
     50 H12          7.8550    -8.8520    14.8030 h1         1 UNL       0.060200
     51 H13          9.4490    -8.2940    15.2940 h1         1 UNL       0.060200
     52 H14          8.3870    -5.8460    11.0700 ha         1 UNL       0.159000
     53 H15          8.1660    -3.5830    10.1820 ha         1 UNL       0.154000
     54 H16          7.5800    -0.6590    12.9760 ha         1 UNL       0.199000
     55 H17          5.7910     0.1470     8.5370 ha         1 UNL       0.141000
     56 H18          5.5200     2.6590     9.3520 ha         1 UNL       0.115000
     57 H19          7.7840    -5.1210     8.0340 ha         1 UNL       0.162000
     58 H20          5.3250    -2.5720     5.7700 ha         1 UNL       0.162000
     59 H21          6.8930     3.4740    13.4570 h1         1 UNL       0.060033
     60 H22          5.7560     2.1470    13.4290 h1         1 UNL       0.060033
     61 H23          5.9430     3.1670    12.0230 h1         1 UNL       0.060033
     62 H24          7.5430    -6.8500     6.3490 ha         1 UNL       0.159500
     63 H25          5.0850    -4.3010     4.0840 ha         1 UNL       0.159500
     64 H26          8.3210     3.1490    10.1500 ha         1 UNL       0.120500
     65 H27          7.1890     4.2850     9.3590 ha         1 UNL       0.120500
@<TRIPOS>BOND
     1     1    15 2   
     2     2    26 1   
     3     2    33 1   
     4     3    25 1   
     5     4    25 1   
     6     5    28 2   
     7     6    14 1   
     8     6    15 1   
     9     7    16 ar  
    10     7    20 ar  
    11     8    28 1   
    12     8    30 2   
    13     9    38 1   
    14    10    38 1   
    15    11    12 1   
    16    11    13 1   
    17    11    14 1   
    18    12    13 1   
    19    15    16 1   
    20    16    17 ar  
    21    17    19 ar  
    22    18    19 ar  
    23    18    20 ar  
    24    18    21 1   
    25    20    25 1   
    26    21    22 ar  
    27    21    23 ar  
    28    22    24 ar  
    29    22    28 1   
    30    23    26 ar  
    31    24    27 ar  
    32    26    27 ar  
    33    27    29 1   
    34    29    37 2   
    35    30    31 1   
    36    30    32 1   
    37    31    35 2   
    38    32    36 2   
    39    34    35 1   
    40    34    36 1   
    41    34    38 2   
    42     6    39 1   
    43     8    40 1   
    44     9    41 1   
    45     9    42 1   
    46    10    43 1   
    47    10    44 1   
    48    11    45 1   
    49    12    46 1   
    50    12    47 1   
    51    13    48 1   
    52    13    49 1   
    53    14    50 1   
    54    14    51 1   
    55    17    52 1   
    56    19    53 1   
    57    23    54 1   
    58    24    55 1   
    59    29    56 1   
    60    31    57 1   
    61    32    58 1   
    62    33    59 1   
    63    33    60 1   
    64    33    61 1   
    65    35    62 1   
    66    36    63 1   
    67    37    64 1   
    68    37    65 1   
@<TRIPOS>SUBSTRUCTURE
     1 UNL         1 TEMP              0 ****  ****    0 ROOT
