@<TRIPOS>MOLECULE
86566678
   65    68     1     0     0
SMALL
bcc


@<TRIPOS>ATOM
      1 O1           3.5150    -7.5880    11.4710 o          1 UNL      -0.691100
      2 O2           5.0040     1.8580    12.4780 os         1 UNL      -0.328900
      3 O3           6.7320    -4.3070    13.7550 o          1 UNL      -0.787300
      4 O4           7.3100    -2.6010    12.3690 o          1 UNL      -0.787300
      5 O5           7.5990    -2.8610     9.2090 o          1 UNL      -0.526100
      6 N6           1.9300    -6.6620    12.8870 n          1 UNL      -0.543900
      7 N7           4.7220    -4.9650    12.3020 nb         1 UNL      -0.643000
      8 N8           5.5480    -2.6910     8.0810 n          1 UNL      -0.474500
      9 N9           5.2050    -6.5760     2.8880 nh         1 UNL      -0.826600
     10 N10          6.9190    -7.5650     4.1310 nh         1 UNL      -0.826600
     11 C11          0.4890    -8.4720    12.1710 cx         1 UNL      -0.152700
     12 C12         -0.9970    -8.6370    12.3350 cx         1 UNL      -0.126400
     13 C13         -0.1070    -9.8470    12.2940 cx         1 UNL      -0.126400
     14 C14          1.3090    -7.9060    13.2800 c3         1 UNL       0.116000
     15 C15          3.0070    -6.5810    11.9960 c          1 UNL       0.602600
     16 C16          3.5370    -5.2570    11.7200 ca         1 UNL       0.344800
     17 C17          2.8380    -4.3810    10.9040 ca         1 UNL      -0.248300
     18 C18          4.6080    -2.7900    11.2540 cp         1 UNL      -0.169300
     19 C19          3.3910    -3.1260    10.6720 ca         1 UNL      -0.112000
     20 C20          5.2270    -3.7360    12.0540 ca         1 UNL       0.395800
     21 C21          5.1850    -1.4820    11.0130 cp         1 UNL       0.066000
     22 C22          6.0820    -1.2690     9.9670 ca         1 UNL      -0.180600
     23 C23          4.8280    -0.4250    11.8520 ca         1 UNL      -0.186000
     24 C24          6.6220     0.0000     9.7580 ca         1 UNL      -0.043000
     25 C25          6.5040    -3.4730    12.7050 c          1 UNL       0.838100
     26 C26          5.3680     0.8440    11.6430 ca         1 UNL       0.165100
     27 C27          6.2650     1.0570    10.5960 ca         1 UNL      -0.086800
     28 C28          6.4810    -2.3450     9.0670 c          1 UNL       0.702700
     29 C29          6.8440     2.3730    10.3600 ce         1 UNL      -0.095200
     30 C30          5.6660    -3.6690     7.0640 cc         1 UNL       0.171000
     31 C31          5.1270    -3.4300     5.8000 cc         1 UNL      -0.172000
     32 C32          6.3230    -4.8720     7.3260 cc         1 UNL      -0.172000
     33 C33          6.0230     2.4080    13.3100 c3         1 UNL       0.108700
     34 C34          5.9000    -5.5970     5.0610 cd         1 UNL      -0.243000
     35 C35          5.2440    -4.3940     4.7980 cd         1 UNL      -0.030500
     36 C36          6.4400    -5.8350     6.3250 cd         1 UNL      -0.030500
     37 C37          7.9200     2.6450     9.5960 c2         1 UNL      -0.220000
     38 C38          6.0220    -6.6010     4.0160 c2         1 UNL       0.519000
     39 H1           1.5760    -5.8260    13.2660 hn         1 UNL       0.332500
     40 H2           4.7010    -2.1890     8.0970 hn         1 UNL       0.321500
     41 H3           5.5410    -6.9210     2.0290 hn         1 UNL       0.474050
     42 H4           4.2910    -6.2140     2.9490 hn         1 UNL       0.474050
     43 H5           7.0030    -8.2460     3.4250 hn         1 UNL       0.474050
     44 H6           7.5030    -7.6020     4.9220 hn         1 UNL       0.474050
     45 H7           1.1220    -7.9830    11.4600 hc         1 UNL       0.088700
     46 H8          -1.6520    -8.4270    11.5160 hc         1 UNL       0.074700
     47 H9          -1.7290    -8.2590    13.0180 hc         1 UNL       0.074700
     48 H10          0.0550   -10.4230    13.1820 hc         1 UNL       0.074700
     49 H11         -0.0730   -10.7420    11.7080 hc         1 UNL       0.074700
     50 H12          0.6780    -7.7300    14.1260 h1         1 UNL       0.055200
     51 H13          2.0790    -8.6080    13.5240 h1         1 UNL       0.055200
     52 H14          1.9360    -4.6520    10.4820 ha         1 UNL       0.141000
     53 H15          2.8990    -2.4470    10.0700 ha         1 UNL       0.135000
     54 H16          4.1650    -0.5830    12.6270 ha         1 UNL       0.155000
     55 H17          7.2860     0.1570     8.9840 ha         1 UNL       0.154000
     56 H18          6.3860     3.1730    10.8230 ha         1 UNL       0.141000
     57 H19          4.6420    -2.5410     5.6050 ha         1 UNL       0.183000
     58 H20          6.7220    -5.0480     8.2610 ha         1 UNL       0.183000
     59 H21          5.6090     3.1900    13.9120 h1         1 UNL       0.051033
     60 H22          6.8070     2.8050    12.6990 h1         1 UNL       0.051033
     61 H23          6.4180     1.6410    13.9440 h1         1 UNL       0.051033
     62 H24          4.8450    -4.2170     3.8630 ha         1 UNL       0.141500
     63 H25          6.9250    -6.7250     6.5190 ha         1 UNL       0.141500
     64 H26          8.4150     1.8800     9.1110 ha         1 UNL       0.112000
     65 H27          8.2480     3.6180     9.4950 ha         1 UNL       0.112000
@<TRIPOS>BOND
     1     1    15 2   
     2     2    26 1   
     3     2    33 1   
     4     3    25 1   
     5     4    25 1   
     6     5    28 2   
     7     6    14 1   
     8     6    15 1   
     9     7    16 ar  
    10     7    20 ar  
    11     8    28 1   
    12     8    30 2   
    13     9    38 1   
    14    10    38 1   
    15    11    12 1   
    16    11    13 1   
    17    11    14 1   
    18    12    13 1   
    19    15    16 1   
    20    16    17 ar  
    21    17    19 ar  
    22    18    19 ar  
    23    18    20 ar  
    24    18    21 1   
    25    20    25 1   
    26    21    22 ar  
    27    21    23 ar  
    28    22    24 ar  
    29    22    28 1   
    30    23    26 ar  
    31    24    27 ar  
    32    26    27 ar  
    33    27    29 1   
    34    29    37 2   
    35    30    31 1   
    36    30    32 1   
    37    31    35 2   
    38    32    36 2   
    39    34    35 1   
    40    34    36 1   
    41    34    38 2   
    42     6    39 1   
    43     8    40 1   
    44     9    41 1   
    45     9    42 1   
    46    10    43 1   
    47    10    44 1   
    48    11    45 1   
    49    12    46 1   
    50    12    47 1   
    51    13    48 1   
    52    13    49 1   
    53    14    50 1   
    54    14    51 1   
    55    17    52 1   
    56    19    53 1   
    57    23    54 1   
    58    24    55 1   
    59    29    56 1   
    60    31    57 1   
    61    32    58 1   
    62    33    59 1   
    63    33    60 1   
    64    33    61 1   
    65    35    62 1   
    66    36    63 1   
    67    37    64 1   
    68    37    65 1   
@<TRIPOS>SUBSTRUCTURE
     1 UNL         1 TEMP              0 ****  ****    0 ROOT
