@<TRIPOS>MOLECULE
*****
   65    68     1     0     0
SMALL
bcc


@<TRIPOS>ATOM
      1 C1           5.3830    -4.3170     4.3380 ca         1 UNL      -0.116000
      2 C2           5.2580    -3.1330     5.0740 ca         1 UNL      -0.098000
      3 C3           5.8190    -3.0780     6.3620 ca         1 UNL       0.096400
      4 C4           6.4520    -4.2040     6.8790 ca         1 UNL      -0.075200
      5 C5           6.5760    -5.4060     6.1850 ca         1 UNL       0.027000
      6 C6           6.0340    -5.4210     4.8940 ca         1 UNL      -0.265900
      7 C7           6.1830    -6.6480     4.0880 ce         1 UNL       0.469400
      8 N8           5.4610    -6.7980     3.0190 nh         1 UNL      -0.451100
      9 N9           7.1010    -7.5820     4.5300 nh         1 UNL      -0.435200
     10 N10          6.8760    -3.8180     8.1230 na         1 UNL      -0.225300
     11 C11          6.5150    -2.5050     8.3100 cc         1 UNL       0.455400
     12 N12          5.8630    -2.0400     7.2620 nd         1 UNL      -0.586100
     13 C13          6.8130    -1.7780     9.5320 ca         1 UNL      -0.195900
     14 C14          6.9460    -2.4930    10.7260 ca         1 UNL      -0.040000
     15 C15          7.2230    -1.8290    11.9250 ca         1 UNL      -0.104300
     16 C16          7.3160    -0.4280    11.9230 ca         1 UNL      -0.058000
     17 C17          7.2090     0.3250    10.7350 cp         1 UNL      -0.092000
     18 C18          6.9720    -0.3840     9.5430 ca         1 UNL       0.176100
     19 O19          6.8870     0.2970     8.3550 oh         1 UNL      -0.506100
     20 C20          7.4070     1.7910    10.7770 cp         1 UNL      -0.050000
     21 C21          8.5430     2.3530    10.1660 ca         1 UNL       0.036000
     22 C22          8.7910     3.7300    10.2270 ca         1 UNL      -0.431500
     23 C23          7.8940     4.5910    10.8460 ca         1 UNL       0.013000
     24 C24          6.7520     4.0590    11.4400 ca         1 UNL      -0.249000
     25 C25          6.5280     2.6770    11.4220 ca         1 UNL       0.188100
     26 O26          5.3950     2.2160    12.0370 oh         1 UNL      -0.481100
     27 S27         10.3060     4.2970     9.5210 sy         1 UNL       1.534200
     28 O28         11.3610     3.5460    10.1740 o          1 UNL      -0.667300
     29 O29         10.1270     4.2510     8.0840 o          1 UNL      -0.667300
     30 N30         10.4230     5.9280    10.0120 n3         1 UNL      -1.025700
     31 C31          7.4270    -2.6150    13.1960 c3         1 UNL      -0.114100
     32 C32          8.8890    -2.8040    13.5610 c          1 UNL       0.629100
     33 O33          9.5890    -1.9460    14.0930 o          1 UNL      -0.591100
     34 N34          9.3350    -4.0750    13.2440 n          1 UNL      -0.493900
     35 C35         10.1830    -4.3310    12.0870 c3         1 UNL      -0.025300
     36 C36         11.6480    -4.5750    12.4730 c3         1 UNL      -0.156400
     37 C37         12.5140    -3.3420    12.3420 c          1 UNL       0.901600
     38 O38         12.9270    -2.6500    13.2600 o          1 UNL      -0.874800
     39 O39         12.7120    -3.0460    11.0310 o          1 UNL      -0.874800
     40 C40          9.5920    -5.5470    11.4020 c          1 UNL       0.889600
     41 O41          9.1850    -5.5500    10.2470 o          1 UNL      -0.866800
     42 O42          9.5920    -6.6530    12.1910 o          1 UNL      -0.866800
     43 H1           4.9940    -4.3740     3.3840 ha         1 UNL       0.121000
     44 H2           4.7640    -2.3170     4.6790 ha         1 UNL       0.138000
     45 H3           7.0370    -6.2320     6.5960 ha         1 UNL       0.180000
     46 H4           4.8230    -6.0970     2.7530 hn         1 UNL       0.332450
     47 H5           5.5530    -7.6130     2.4740 hn         1 UNL       0.332450
     48 H6           7.4990    -8.2210     3.8950 hn         1 UNL       0.332450
     49 H7           7.3580    -7.6080     5.4800 hn         1 UNL       0.332450
     50 H8           7.3560    -4.3830     8.7710 hn         1 UNL       0.360700
     51 H9           6.8390    -3.5190    10.7220 ha         1 UNL       0.192000
     52 H10          7.4680     0.0650    12.8160 ha         1 UNL       0.138000
     53 H11          6.0610     0.3800     7.9210 ho         1 UNL       0.444000
     54 H12          9.2040     1.7400     9.6640 ha         1 UNL       0.158000
     55 H13          8.0710     5.6080    10.8650 ha         1 UNL       0.157000
     56 H14          6.0690     4.6850    11.8950 ha         1 UNL       0.135000
     57 H15          4.5590     2.3360    11.6310 ho         1 UNL       0.420000
     58 H16          9.5580     6.2060    10.4760 hn         1 UNL       0.446800
     59 H17         10.5750     6.5190     9.1950 hn         1 UNL       0.446800
     60 H18          6.9810    -3.5790    13.0730 hc         1 UNL       0.062700
     61 H19          6.9740    -2.0560    13.9880 hc         1 UNL       0.062700
     62 H20          9.0700    -4.8300    13.8170 hn         1 UNL       0.282500
     63 H21         10.2030    -3.4770    11.4430 h1         1 UNL       0.109700
     64 H22         12.0450    -5.3380    11.8370 hc         1 UNL       0.041700
     65 H23         11.6610    -4.8630    13.5040 hc         1 UNL       0.041700
@<TRIPOS>BOND
     1     1     2 ar  
     2     1     6 ar  
     3     2     3 ar  
     4     3     4 ar  
     5     3    12 1   
     6     4     5 ar  
     7     4    10 1   
     8     5     6 ar  
     9     6     7 1   
    10     7     8 2   
    11     7     9 1   
    12    10    11 1   
    13    11    12 2   
    14    11    13 1   
    15    13    14 ar  
    16    13    18 ar  
    17    14    15 ar  
    18    15    16 ar  
    19    15    31 1   
    20    16    17 ar  
    21    17    18 ar  
    22    17    20 1   
    23    18    19 1   
    24    20    21 ar  
    25    20    25 ar  
    26    21    22 ar  
    27    22    23 ar  
    28    22    27 1   
    29    23    24 ar  
    30    24    25 ar  
    31    25    26 1   
    32    27    28 2   
    33    27    29 2   
    34    27    30 1   
    35    31    32 1   
    36    32    33 2   
    37    32    34 1   
    38    34    35 1   
    39    35    36 1   
    40    35    40 1   
    41    36    37 1   
    42    37    38 1   
    43    37    39 1   
    44    40    41 1   
    45    40    42 1   
    46     1    43 1   
    47     2    44 1   
    48     5    45 1   
    49     8    46 1   
    50     8    47 1   
    51     9    48 1   
    52     9    49 1   
    53    10    50 1   
    54    14    51 1   
    55    16    52 1   
    56    19    53 1   
    57    21    54 1   
    58    23    55 1   
    59    24    56 1   
    60    26    57 1   
    61    30    58 1   
    62    30    59 1   
    63    31    60 1   
    64    31    61 1   
    65    34    62 1   
    66    35    63 1   
    67    36    64 1   
    68    36    65 1   
@<TRIPOS>SUBSTRUCTURE
     1 UNL         1 TEMP              0 ****  ****    0 ROOT
