@<TRIPOS>MOLECULE
2536
   52    53     1     0     0
SMALL
bcc


@<TRIPOS>ATOM
      1 O1           3.5700    -0.2110    13.4850 os         1 UNL      -0.402900
      2 O2           6.5480    -2.9280     7.4020 os         1 UNL      -0.361200
      3 O3           5.0890    -1.9380    13.6660 o          1 UNL      -0.474000
      4 O4           3.3140     1.9800    14.9160 o          1 UNL      -0.620100
      5 O5           5.2830    -1.9270     5.7200 o          1 UNL      -0.488000
      6 N6           1.2300     1.4090    15.7660 n          1 UNL      -0.467800
      7 N7           5.8830    -7.9940     3.6940 nh         1 UNL      -0.328200
      8 N8           6.6800    -9.0610     5.7040 nh         1 UNL      -0.501700
      9 N9           6.2890   -10.2910     3.8210 nh         1 UNL      -0.501700
     10 C10          4.1970    -2.2510    10.7550 ca         1 UNL      -0.073300
     11 C11          3.3430    -2.0050    11.9720 c3         1 UNL      -0.116100
     12 C12          4.1810    -3.4990    10.1320 ca         1 UNL      -0.093500
     13 C13          5.0030    -1.2300    10.2500 ca         1 UNL      -0.093500
     14 C14          5.7770    -2.7060     8.5010 ca         1 UNL       0.091100
     15 C15          4.9710    -3.7270     9.0060 ca         1 UNL      -0.129000
     16 C16          5.7930    -1.4580     9.1230 ca         1 UNL      -0.129000
     17 C17          4.1190    -1.4200    13.1280 c          1 UNL       0.640100
     18 C18          2.6040    -0.2440    14.5140 c3         1 UNL       0.068400
     19 C19          5.8580    -4.2340     5.5390 ca         1 UNL      -0.092600
     20 C20          2.4190     1.1460    15.0840 c          1 UNL       0.633100
     21 C21          5.8490    -2.9010     6.1930 c          1 UNL       0.639700
     22 C22          6.7800    -5.2010     5.9390 ca         1 UNL      -0.055500
     23 C23          4.9440    -4.5190     4.5250 ca         1 UNL      -0.055500
     24 C24          5.8740    -6.7380     4.3100 ca         1 UNL      -0.053200
     25 C25          6.7890    -6.4530     5.3240 ca         1 UNL      -0.142500
     26 C26          4.9520    -5.7710     3.9100 ca         1 UNL      -0.142500
     27 C27          0.1440     0.4540    15.9720 c3         1 UNL       0.073800
     28 C28          1.0030     2.7360    16.3250 c3         1 UNL       0.073800
     29 C29          6.2660    -9.0380     4.3890 cz         1 UNL       0.525300
     30 H1           5.6060    -8.0920     2.7550 hn         1 UNL       0.333700
     31 H2           7.0460    -9.8890     6.0910 hn         1 UNL       0.329450
     32 H3           6.6090    -8.2490     6.2560 hn         1 UNL       0.329450
     33 H4           5.7330   -11.0110     4.1960 hn         1 UNL       0.329450
     34 H5           6.8620   -10.4660     3.0400 hn         1 UNL       0.329450
     35 H6           2.9170    -2.9360    12.2830 hc         1 UNL       0.085700
     36 H7           2.5920    -1.2940    11.6980 hc         1 UNL       0.085700
     37 H8           3.5850    -4.2540    10.5060 ha         1 UNL       0.159500
     38 H9           5.0140    -0.3060    10.7100 ha         1 UNL       0.159500
     39 H10          4.9590    -4.6510     8.5460 ha         1 UNL       0.148500
     40 H11          6.3890    -0.7030     8.7500 ha         1 UNL       0.148500
     41 H12          2.9320    -0.9050    15.2890 h1         1 UNL       0.080700
     42 H13          1.6740    -0.5910    14.1160 h1         1 UNL       0.080700
     43 H14          7.4570    -4.9900     6.6890 ha         1 UNL       0.187000
     44 H15          4.2610    -3.8040     4.2290 ha         1 UNL       0.187000
     45 H16          7.4710    -7.1680     5.6200 ha         1 UNL       0.156500
     46 H17          4.2760    -5.9820     3.1600 ha         1 UNL       0.156500
     47 H18          0.4040    -0.4840    15.5290 h1         1 UNL       0.048533
     48 H19         -0.7500     0.8280    15.5180 h1         1 UNL       0.048533
     49 H20         -0.0190     0.3200    17.0210 h1         1 UNL       0.048533
     50 H21          1.8500     3.3580    16.1230 h1         1 UNL       0.048533
     51 H22          0.8610     2.6580    17.3830 h1         1 UNL       0.048533
     52 H23          0.1300     3.1660    15.8790 h1         1 UNL       0.048533
@<TRIPOS>BOND
     1     1    17 1   
     2     1    18 1   
     3     2    14 1   
     4     2    21 1   
     5     3    17 2   
     6     4    20 2   
     7     5    21 2   
     8     6    20 1   
     9     6    27 1   
    10     6    28 1   
    11     7    24 1   
    12     7    29 2   
    13     8    29 1   
    14     9    29 1   
    15    10    11 1   
    16    10    12 ar  
    17    10    13 ar  
    18    11    17 1   
    19    12    15 ar  
    20    13    16 ar  
    21    14    15 ar  
    22    14    16 ar  
    23    18    20 1   
    24    19    21 1   
    25    19    22 ar  
    26    19    23 ar  
    27    22    25 ar  
    28    23    26 ar  
    29    24    25 ar  
    30    24    26 ar  
    31     7    30 1   
    32     8    31 1   
    33     8    32 1   
    34     9    33 1   
    35     9    34 1   
    36    11    35 1   
    37    11    36 1   
    38    12    37 1   
    39    13    38 1   
    40    15    39 1   
    41    16    40 1   
    42    18    41 1   
    43    18    42 1   
    44    22    43 1   
    45    23    44 1   
    46    25    45 1   
    47    26    46 1   
    48    27    47 1   
    49    27    48 1   
    50    27    49 1   
    51    28    50 1   
    52    28    51 1   
    53    28    52 1   
@<TRIPOS>SUBSTRUCTURE
     1 UNL         1 TEMP              0 ****  ****    0 ROOT
