@<TRIPOS>MOLECULE
64949
   45    46     1     0     0
SMALL
bcc


@<TRIPOS>ATOM
      1 O1           6.4050    -2.9940     8.5440 os         1 UNL      -0.319900
      2 O2           5.8360     1.3880     9.7950 os         1 UNL      -0.319900
      3 N3           5.9590    -6.2420     3.0010 nh         1 UNL      -0.470100
      4 N4           5.0450     4.2540    15.5090 nh         1 UNL      -0.470100
      5 N5           6.7250    -7.8830     4.4780 nh         1 UNL      -0.454200
      6 N6           2.9890     4.6430    14.4680 nh         1 UNL      -0.454200
      7 C7           6.4810    -0.6030     8.6030 c3         1 UNL      -0.093400
      8 C8           5.6050    -1.8280     8.4020 c3         1 UNL       0.123400
      9 C9           6.2580     0.0410     9.9630 c3         1 UNL       0.123400
     10 C10          6.3930    -3.8830     7.5020 ca         1 UNL       0.202100
     11 C11          5.4370     2.0550    10.9240 ca         1 UNL       0.202100
     12 C12          5.4300    -3.7630     6.5070 ca         1 UNL      -0.180500
     13 C13          5.0670     3.3930    10.8370 ca         1 UNL      -0.180500
     14 C14          7.3450    -4.8950     7.4500 ca         1 UNL      -0.180500
     15 C15          5.4040     1.3880    12.1430 ca         1 UNL      -0.180500
     16 C16          6.3690    -5.6860     5.3860 ca         1 UNL      -0.303900
     17 C17          4.6250     3.4100    13.2120 ca         1 UNL      -0.303900
     18 C18          5.4180    -4.6680     5.4450 ca         1 UNL      -0.039000
     19 C19          4.6600     4.0720    11.9850 ca         1 UNL      -0.039000
     20 C20          7.3330    -5.8000     6.3880 ca         1 UNL      -0.039000
     21 C21          4.9970     2.0670    13.2910 ca         1 UNL      -0.039000
     22 C22          6.3570    -6.6290     4.2790 ce         1 UNL       0.527400
     23 C23          4.2000     4.1180    14.4090 ce         1 UNL       0.527400
     24 H1           5.8330    -6.9200     2.2980 hn         1 UNL       0.327200
     25 H2           5.8040    -5.2910     2.8000 hn         1 UNL       0.327200
     26 H3           4.7460     3.9580    16.3990 hn         1 UNL       0.327200
     27 H4           5.9400     4.6460    15.3960 hn         1 UNL       0.327200
     28 H5           6.7180    -8.5230     3.7300 hn         1 UNL       0.327200
     29 H6           7.0070    -8.1760     5.3740 hn         1 UNL       0.327200
     30 H7           2.6990     5.1230    15.2770 hn         1 UNL       0.327200
     31 H8           2.3760     4.5550    13.7020 hn         1 UNL       0.327200
     32 H9           6.2550     0.1130     7.8410 hc         1 UNL       0.091700
     33 H10          7.5030    -0.9150     8.5500 hc         1 UNL       0.091700
     34 H11          4.8250    -1.8360     9.1350 h1         1 UNL       0.063200
     35 H12          5.1680    -1.8050     7.4260 h1         1 UNL       0.063200
     36 H13          5.5050    -0.5030    10.4940 h1         1 UNL       0.063200
     37 H14          7.1730     0.0240    10.5160 h1         1 UNL       0.063200
     38 H15          4.7270    -3.0090     6.5530 ha         1 UNL       0.174000
     39 H16          5.0940     3.8800     9.9280 ha         1 UNL       0.174000
     40 H17          8.0560    -4.9770     8.1930 ha         1 UNL       0.174000
     41 H18          5.6800     0.3950    12.1980 ha         1 UNL       0.174000
     42 H19          4.7050    -4.5840     4.7040 ha         1 UNL       0.153000
     43 H20          4.3850     5.0650    11.9270 ha         1 UNL       0.153000
     44 H21          8.0370    -6.5530     6.3440 ha         1 UNL       0.153000
     45 H22          4.9710     1.5770    14.1990 ha         1 UNL       0.153000
@<TRIPOS>BOND
     1     1     8 1   
     2     1    10 1   
     3     2     9 1   
     4     2    11 1   
     5     3    22 2   
     6     4    23 2   
     7     5    22 1   
     8     6    23 1   
     9     7     8 1   
    10     7     9 1   
    11    10    12 ar  
    12    10    14 ar  
    13    11    13 ar  
    14    11    15 ar  
    15    12    18 ar  
    16    13    19 ar  
    17    14    20 ar  
    18    15    21 ar  
    19    16    18 ar  
    20    16    20 ar  
    21    16    22 1   
    22    17    19 ar  
    23    17    21 ar  
    24    17    23 1   
    25     3    24 1   
    26     3    25 1   
    27     4    26 1   
    28     4    27 1   
    29     5    28 1   
    30     5    29 1   
    31     6    30 1   
    32     6    31 1   
    33     7    32 1   
    34     7    33 1   
    35     8    34 1   
    36     8    35 1   
    37     9    36 1   
    38     9    37 1   
    39    12    38 1   
    40    13    39 1   
    41    14    40 1   
    42    15    41 1   
    43    18    42 1   
    44    19    43 1   
    45    20    44 1   
    46    21    45 1   
@<TRIPOS>SUBSTRUCTURE
     1 UNL         1 TEMP              0 ****  ****    0 ROOT
