@<TRIPOS>MOLECULE
*****
   65    68     1     0     0
SMALL
bcc


@<TRIPOS>ATOM
      1 C1           6.9490    -5.4520     5.4450 ca         1 UNL      -0.093000
      2 C2           7.4400    -4.8820     6.6250 ca         1 UNL      -0.125000
      3 C3           6.6460    -3.9370     7.2970 ca         1 UNL       0.136400
      4 C4           5.4140    -3.5750     6.7610 ca         1 UNL      -0.188200
      5 C5           4.9030    -4.1050     5.5780 ca         1 UNL       0.010000
      6 C6           5.7030    -5.0650     4.9460 ca         1 UNL      -0.350900
      7 C7           5.1900    -5.7040     3.7190 ce         1 UNL       0.503400
      8 N8           5.9710    -6.4810     3.0320 nh         1 UNL      -0.526600
      9 N9           3.8810    -5.4300     3.3680 nh         1 UNL      -0.510700
     10 N10          4.9110    -2.6570     7.6450 na         1 UNL      -0.194300
     11 C11          5.8160    -2.5090     8.6690 cc         1 UNL       0.408400
     12 N12          6.8790    -3.2650     8.4740 nd         1 UNL      -0.648100
     13 C13          5.5940    -1.6050     9.7850 ca         1 UNL      -0.163900
     14 C14          6.0010    -0.2730     9.6640 ca         1 UNL      -0.034000
     15 C15          5.8150     0.6250    10.7180 ca         1 UNL      -0.104300
     16 C16          5.2580     0.1600    11.9200 ca         1 UNL      -0.079000
     17 C17          4.8150    -1.1710    12.0710 cp         1 UNL      -0.111000
     18 C18          4.9820    -2.0330    10.9730 ca         1 UNL       0.158100
     19 O19          4.5450    -3.3310    11.0560 oh         1 UNL      -0.520100
     20 C20          4.1520    -1.5840    13.3280 cp         1 UNL      -0.113000
     21 C21          3.0450    -0.8540    13.7970 ca         1 UNL       0.034000
     22 C22          2.4210    -1.1830    15.0080 ca         1 UNL      -0.441500
     23 C23          2.8430    -2.2750    15.7560 ca         1 UNL       0.006000
     24 C24          3.9260    -3.0240    15.3010 ca         1 UNL      -0.201000
     25 C25          4.5800    -2.6660    14.1160 ca         1 UNL       0.222100
     26 O26          5.6470    -3.4340    13.7310 oh         1 UNL      -0.495100
     27 S27          1.1160    -0.1220    15.5440 sy         1 UNL       1.535200
     28 O28          1.6780     1.2140    15.5940 o          1 UNL      -0.668800
     29 O29         -0.0260    -0.4290    14.7060 o          1 UNL      -0.668800
     30 N30          0.7830    -0.6270    17.1400 n3         1 UNL      -1.027700
     31 C31          6.2000     2.0740    10.5560 c3         1 UNL      -0.110100
     32 C32          7.2150     2.3100     9.4510 c          1 UNL       0.649100
     33 O33          7.5330     1.4740     8.6100 o          1 UNL      -0.648100
     34 N34          7.7250     3.5960     9.4920 n          1 UNL      -0.503900
     35 C35          9.0610     3.8830     9.9970 c3         1 UNL      -0.050300
     36 C36          9.9710     4.5110     8.9330 c3         1 UNL      -0.121400
     37 C37         11.2960     3.7980     8.7850 c          1 UNL       0.899600
     38 O38         11.6630     2.8200     9.4200 o          1 UNL      -0.630800
     39 O39         12.0840     4.4500     7.8910 o          1 UNL      -0.630800
     40 C40          8.8660     4.8250    11.1700 c          1 UNL       0.912600
     41 O41          8.9850     6.0410    11.0960 o          1 UNL      -0.822300
     42 O42          8.5040     4.1820    12.3110 o          1 UNL      -0.822300
     43 H1           7.5070    -6.1600     4.9440 ha         1 UNL       0.102000
     44 H2           8.3670    -5.1490     6.9930 ha         1 UNL       0.140000
     45 H3           3.9930    -3.8090     5.1920 ha         1 UNL       0.136000
     46 H4           6.8950    -6.6390     3.3320 hn         1 UNL       0.296200
     47 H5           5.6390    -6.9120     2.2120 hn         1 UNL       0.296200
     48 H6           3.6790    -5.0410     2.4860 hn         1 UNL       0.296200
     49 H7           3.1510    -5.6220     4.0000 hn         1 UNL       0.296200
     50 H8           4.0510    -2.1860     7.5610 hn         1 UNL       0.289700
     51 H9           6.4430     0.0490     8.7890 ha         1 UNL       0.185000
     52 H10          5.1690     0.8110    12.7160 ha         1 UNL       0.133000
     53 H11          3.7240    -3.5740    10.6750 ho         1 UNL       0.454000
     54 H12          2.6860    -0.0630    13.2400 ha         1 UNL       0.145000
     55 H13          2.3630    -2.5260    16.6340 ha         1 UNL       0.156000
     56 H14          4.2460    -3.8450    15.8380 ha         1 UNL       0.150000
     57 H15          5.6040    -3.9310    12.9380 ho         1 UNL       0.453000
     58 H16         -0.2010    -0.4590    17.3510 hn         1 UNL       0.447300
     59 H17          1.3650    -0.1020    17.7910 hn         1 UNL       0.447300
     60 H18          6.6160     2.4200    11.4790 hc         1 UNL       0.066700
     61 H19          5.3120     2.6080    10.2870 hc         1 UNL       0.066700
     62 H20          7.1670     4.3400     9.1690 hn         1 UNL       0.323500
     63 H21          9.5530     2.9780    10.2870 h1         1 UNL       0.080700
     64 H22         10.1610     5.5280     9.2050 hc         1 UNL       0.086200
     65 H23          9.4630     4.4340     7.9950 hc         1 UNL       0.086200
@<TRIPOS>BOND
     1     1     2 ar  
     2     1     6 ar  
     3     2     3 ar  
     4     3     4 ar  
     5     3    12 1   
     6     4     5 ar  
     7     4    10 1   
     8     5     6 ar  
     9     6     7 1   
    10     7     8 2   
    11     7     9 1   
    12    10    11 1   
    13    11    12 2   
    14    11    13 1   
    15    13    14 ar  
    16    13    18 ar  
    17    14    15 ar  
    18    15    16 ar  
    19    15    31 1   
    20    16    17 ar  
    21    17    18 ar  
    22    17    20 1   
    23    18    19 1   
    24    20    21 ar  
    25    20    25 ar  
    26    21    22 ar  
    27    22    23 ar  
    28    22    27 1   
    29    23    24 ar  
    30    24    25 ar  
    31    25    26 1   
    32    27    28 2   
    33    27    29 2   
    34    27    30 1   
    35    31    32 1   
    36    32    33 2   
    37    32    34 1   
    38    34    35 1   
    39    35    36 1   
    40    35    40 1   
    41    36    37 1   
    42    37    38 1   
    43    37    39 1   
    44    40    41 1   
    45    40    42 1   
    46     1    43 1   
    47     2    44 1   
    48     5    45 1   
    49     8    46 1   
    50     8    47 1   
    51     9    48 1   
    52     9    49 1   
    53    10    50 1   
    54    14    51 1   
    55    16    52 1   
    56    19    53 1   
    57    21    54 1   
    58    23    55 1   
    59    24    56 1   
    60    26    57 1   
    61    30    58 1   
    62    30    59 1   
    63    31    60 1   
    64    31    61 1   
    65    34    62 1   
    66    35    63 1   
    67    36    64 1   
    68    36    65 1   
@<TRIPOS>SUBSTRUCTURE
     1 UNL         1 TEMP              0 ****  ****    0 ROOT
