@<TRIPOS>MOLECULE
2536
   52    53     1     0     0
SMALL
bcc


@<TRIPOS>ATOM
      1 O1           6.6790     5.1920    12.8620 os         1 UNL      -0.414900
      2 O2           6.7810    -0.8400     8.5980 os         1 UNL      -0.360200
      3 O3           8.0180     4.9950    10.9940 o          1 UNL      -0.480000
      4 O4           4.1690     6.1660    12.4370 o          1 UNL      -0.608100
      5 O5           6.2630    -2.3480    10.2980 o          1 UNL      -0.487000
      6 N6           3.4900     5.2510    14.4600 n          1 UNL      -0.453800
      7 N7           5.2380    -5.7570     4.9510 nh         1 UNL      -0.329200
      8 N8           7.5530    -6.4120     4.7990 nh         1 UNL      -0.501700
      9 N9           5.9920    -7.3610     3.4300 nh         1 UNL      -0.501700
     10 C10          7.4930     2.0650    11.4760 ca         1 UNL      -0.091300
     11 C11          7.7510     3.1190    12.5210 c3         1 UNL      -0.123100
     12 C12          6.2420     1.9800    10.8650 ca         1 UNL      -0.104000
     13 C13          8.5050     1.1730    11.1190 ca         1 UNL      -0.104000
     14 C14          7.0140     0.1130     9.5410 ca         1 UNL       0.095100
     15 C15          6.0030     1.0040     9.8970 ca         1 UNL      -0.122000
     16 C16          8.2660     0.1970    10.1520 ca         1 UNL      -0.122000
     17 C17          7.5260     4.5230    12.0100 c          1 UNL       0.634100
     18 C18          5.5600     4.4670    13.3270 c3         1 UNL       0.056400
     19 C19          6.0700    -3.0350     8.0240 ca         1 UNL      -0.094600
     20 C20          4.3470     5.3730    13.3670 c          1 UNL       0.657100
     21 C21          6.3660    -2.0700     9.1130 c          1 UNL       0.641700
     22 C22          5.6860    -2.5710     6.7660 ca         1 UNL      -0.054500
     23 C23          6.1770    -4.4060     8.2590 ca         1 UNL      -0.054500
     24 C24          5.5160    -4.8480     5.9770 ca         1 UNL      -0.050200
     25 C25          5.4090    -3.4770     5.7420 ca         1 UNL      -0.142000
     26 C26          5.8990    -5.3120     7.2350 ca         1 UNL      -0.142000
     27 C27          3.6590     4.3160    15.5700 c3         1 UNL       0.075800
     28 C28          2.3040     6.0960    14.5380 c3         1 UNL       0.075800
     29 C29          6.2230    -6.4570     4.4400 cz         1 UNL       0.526300
     30 H1           4.3180    -5.8690     4.6170 hn         1 UNL       0.333700
     31 H2           7.9010    -7.0360     5.4770 hn         1 UNL       0.329700
     32 H3           8.1540    -5.7570     4.3770 hn         1 UNL       0.329700
     33 H4           5.5600    -7.0670     2.5960 hn         1 UNL       0.329700
     34 H5           6.2590    -8.3020     3.5420 hn         1 UNL       0.329700
     35 H6           8.7660     3.0340    12.8480 hc         1 UNL       0.089200
     36 H7           7.0580     2.9550    13.3200 hc         1 UNL       0.089200
     37 H8           5.4930     2.6400    11.1280 ha         1 UNL       0.154500
     38 H9           9.4300     1.2360    11.5710 ha         1 UNL       0.154500
     39 H10          5.0770     0.9420     9.4460 ha         1 UNL       0.155500
     40 H11          9.0140    -0.4630     9.8880 ha         1 UNL       0.155500
     41 H12          5.7600     4.0960    14.3100 h1         1 UNL       0.071200
     42 H13          5.3690     3.6480    12.6660 h1         1 UNL       0.071200
     43 H14          5.6080    -1.5570     6.5920 ha         1 UNL       0.186500
     44 H15          6.4600    -4.7500     9.1890 ha         1 UNL       0.186500
     45 H16          5.1260    -3.1340     4.8120 ha         1 UNL       0.157000
     46 H17          5.9780    -6.3270     7.4090 ha         1 UNL       0.157000
     47 H18          4.5520     3.7450    15.4210 h1         1 UNL       0.049533
     48 H19          2.8180     3.6570    15.6130 h1         1 UNL       0.049533
     49 H20          3.7330     4.8610    16.4870 h1         1 UNL       0.049533
     50 H21          2.2690     6.7410    13.6860 h1         1 UNL       0.049533
     51 H22          2.3440     6.6850    15.4310 h1         1 UNL       0.049533
     52 H23          1.4290     5.4810    14.5560 h1         1 UNL       0.049533
@<TRIPOS>BOND
     1     1    17 1   
     2     1    18 1   
     3     2    14 1   
     4     2    21 1   
     5     3    17 2   
     6     4    20 2   
     7     5    21 2   
     8     6    20 1   
     9     6    27 1   
    10     6    28 1   
    11     7    24 1   
    12     7    29 2   
    13     8    29 1   
    14     9    29 1   
    15    10    11 1   
    16    10    12 ar  
    17    10    13 ar  
    18    11    17 1   
    19    12    15 ar  
    20    13    16 ar  
    21    14    15 ar  
    22    14    16 ar  
    23    18    20 1   
    24    19    21 1   
    25    19    22 ar  
    26    19    23 ar  
    27    22    25 ar  
    28    23    26 ar  
    29    24    25 ar  
    30    24    26 ar  
    31     7    30 1   
    32     8    31 1   
    33     8    32 1   
    34     9    33 1   
    35     9    34 1   
    36    11    35 1   
    37    11    36 1   
    38    12    37 1   
    39    13    38 1   
    40    15    39 1   
    41    16    40 1   
    42    18    41 1   
    43    18    42 1   
    44    22    43 1   
    45    23    44 1   
    46    25    45 1   
    47    26    46 1   
    48    27    47 1   
    49    27    48 1   
    50    27    49 1   
    51    28    50 1   
    52    28    51 1   
    53    28    52 1   
@<TRIPOS>SUBSTRUCTURE
     1 UNL         1 TEMP              0 ****  ****    0 ROOT
