@<TRIPOS>MOLECULE
2536
   52    53     1     0     0
SMALL
bcc


@<TRIPOS>ATOM
      1 O1           1.6360    -8.7970    12.9690 os         1 UNL      -0.413900
      2 O2           6.6370    -3.5760    10.4450 os         1 UNL      -0.327200
      3 O3           3.1060    -8.5940    11.2030 o          1 UNL      -0.585000
      4 O4           0.0900    -9.8510    14.7680 o          1 UNL      -0.686100
      5 O5           8.7270    -4.6000    10.5720 o          1 UNL      -0.430000
      6 N6          -1.7420   -10.1840    13.3810 n          1 UNL      -0.458800
      7 N7           6.7090    -6.1120     4.6640 nh         1 UNL      -0.324200
      8 N8           4.4770    -5.2000     4.6930 nh         1 UNL      -0.480700
      9 N9           5.2600    -6.2750     2.8390 nh         1 UNL      -0.480700
     10 C10          3.4190    -5.8040    11.8260 ca         1 UNL      -0.103300
     11 C11          2.2500    -6.6130    12.3270 c3         1 UNL      -0.079100
     12 C12          3.2040    -4.7340    10.9580 ca         1 UNL      -0.101000
     13 C13          4.7150    -6.1260    12.2300 ca         1 UNL      -0.101000
     14 C14          5.5810    -4.3060    10.8980 ca         1 UNL       0.091100
     15 C15          4.2860    -3.9850    10.4940 ca         1 UNL      -0.136000
     16 C16          5.7960    -5.3770    11.7660 ca         1 UNL      -0.136000
     17 C17          2.4050    -8.0930    12.0720 c          1 UNL       0.666100
     18 C18          0.3920    -9.2640    12.4930 c3         1 UNL       0.070400
     19 C19          7.4410    -4.8050     8.5750 ca         1 UNL      -0.125600
     20 C20         -0.4300    -9.7940    13.6500 c          1 UNL       0.653100
     21 C21          7.7010    -4.3420     9.9610 c          1 UNL       0.636700
     22 C22          7.3980    -3.8840     7.5280 ca         1 UNL      -0.069500
     23 C23          7.2400    -6.1620     8.3190 ca         1 UNL      -0.069500
     24 C24          6.9530    -5.6760     5.9700 ca         1 UNL      -0.049200
     25 C25          7.1540    -4.3190     6.2260 ca         1 UNL      -0.128000
     26 C26          6.9960    -6.5970     7.0160 ca         1 UNL      -0.128000
     27 C27         -2.3950   -10.1180    12.0750 c3         1 UNL       0.069800
     28 C28         -2.5740   -10.6930    14.4640 c3         1 UNL       0.069800
     29 C29          5.5410    -5.8630     4.1200 cz         1 UNL       0.507300
     30 H1           7.4020    -6.5970     4.1600 hn         1 UNL       0.317700
     31 H2           3.5790    -5.6030     4.6780 hn         1 UNL       0.330200
     32 H3           4.6160    -4.3220     5.1180 hn         1 UNL       0.330200
     33 H4           4.4580    -5.9370     2.3780 hn         1 UNL       0.330200
     34 H5           5.8610    -6.9070     2.3820 hn         1 UNL       0.330200
     35 H6           1.3630    -6.2720    11.8340 hc         1 UNL       0.098700
     36 H7           2.1950    -6.4740    13.3870 hc         1 UNL       0.098700
     37 H8           2.2460    -4.4960    10.6590 ha         1 UNL       0.150500
     38 H9           4.8730    -6.9180    12.8730 ha         1 UNL       0.150500
     39 H10          4.1270    -3.1930     9.8510 ha         1 UNL       0.159000
     40 H11          6.7540    -5.6150    12.0650 ha         1 UNL       0.159000
     41 H12          0.5540   -10.0480    11.7830 h1         1 UNL       0.098200
     42 H13         -0.1340    -8.4580    12.0250 h1         1 UNL       0.098200
     43 H14          7.5460    -2.8810     7.7180 ha         1 UNL       0.170500
     44 H15          7.2720    -6.8430     9.0930 ha         1 UNL       0.170500
     45 H16          7.1220    -3.6380     5.4520 ha         1 UNL       0.166000
     46 H17          6.8470    -7.6000     6.8270 ha         1 UNL       0.166000
     47 H18         -1.7060    -9.7340    11.3520 h1         1 UNL       0.054200
     48 H19         -3.2460    -9.4720    12.1350 h1         1 UNL       0.054200
     49 H20         -2.7100   -11.0980    11.7840 h1         1 UNL       0.054200
     50 H21         -2.0100   -10.7030    15.3730 h1         1 UNL       0.054200
     51 H22         -2.8940   -11.6870    14.2320 h1         1 UNL       0.054200
     52 H23         -3.4300   -10.0620    14.5820 h1         1 UNL       0.054200
@<TRIPOS>BOND
     1     1    17 1   
     2     1    18 1   
     3     2    14 1   
     4     2    21 1   
     5     3    17 2   
     6     4    20 2   
     7     5    21 2   
     8     6    20 1   
     9     6    27 1   
    10     6    28 1   
    11     7    24 1   
    12     7    29 2   
    13     8    29 1   
    14     9    29 1   
    15    10    11 1   
    16    10    12 ar  
    17    10    13 ar  
    18    11    17 1   
    19    12    15 ar  
    20    13    16 ar  
    21    14    15 ar  
    22    14    16 ar  
    23    18    20 1   
    24    19    21 1   
    25    19    22 ar  
    26    19    23 ar  
    27    22    25 ar  
    28    23    26 ar  
    29    24    25 ar  
    30    24    26 ar  
    31     7    30 1   
    32     8    31 1   
    33     8    32 1   
    34     9    33 1   
    35     9    34 1   
    36    11    35 1   
    37    11    36 1   
    38    12    37 1   
    39    13    38 1   
    40    15    39 1   
    41    16    40 1   
    42    18    41 1   
    43    18    42 1   
    44    22    43 1   
    45    23    44 1   
    46    25    45 1   
    47    26    46 1   
    48    27    47 1   
    49    27    48 1   
    50    27    49 1   
    51    28    50 1   
    52    28    51 1   
    53    28    52 1   
@<TRIPOS>SUBSTRUCTURE
     1 UNL         1 TEMP              0 ****  ****    0 ROOT
