@<TRIPOS>MOLECULE
64949
   45    46     1     0     0
SMALL
bcc


@<TRIPOS>ATOM
      1 O1           6.3880    -2.0750     7.6480 os         1 UNL      -0.307400
      2 O2           6.3720     1.1380     8.7040 os         1 UNL      -0.307400
      3 N3           6.9760    -7.5910     4.3760 nh         1 UNL      -0.469600
      4 N4           3.8520     5.4010    12.8240 nh         1 UNL      -0.469600
      5 N5           5.2560    -6.5090     3.2220 nh         1 UNL      -0.453700
      6 N6           6.1290     5.4890    13.3460 nh         1 UNL      -0.453700
      7 C7           6.2350    -1.0100     9.7850 c3         1 UNL      -0.121400
      8 C8           6.2310    -2.3320     9.0360 c3         1 UNL       0.124400
      9 C9           7.1390     0.0180     9.1230 c3         1 UNL       0.124400
     10 C10          6.3260    -3.1550     6.8070 ca         1 UNL       0.200100
     11 C11          6.0750     2.0760     9.6580 ca         1 UNL       0.200100
     12 C12          7.3050    -4.1390     6.8780 ca         1 UNL      -0.180250
     13 C13          5.0280     1.8480    10.5440 ca         1 UNL      -0.180250
     14 C14          5.2830    -3.2560     5.8940 ca         1 UNL      -0.180250
     15 C15          6.8250     3.2440     9.7310 ca         1 UNL      -0.180250
     16 C16          6.1980    -5.3480     5.1040 ca         1 UNL      -0.303400
     17 C17          5.4750     3.9770    11.5960 ca         1 UNL      -0.303400
     18 C18          7.2410    -5.2390     6.0230 ca         1 UNL      -0.038750
     19 C19          4.7270     2.8020    11.5160 ca         1 UNL      -0.038750
     20 C20          5.2180    -4.3570     5.0390 ca         1 UNL      -0.038750
     21 C21          6.5240     4.1980    10.7030 ca         1 UNL      -0.038750
     22 C22          6.1300    -6.4960     4.2130 ce         1 UNL       0.527400
     23 C23          5.1610     4.9720    12.6090 ce         1 UNL       0.527400
     24 H1           7.4320    -7.9820     3.5960 hn         1 UNL       0.327325
     25 H2           7.1180    -7.9750     5.2720 hn         1 UNL       0.327325
     26 H3           3.5940     6.3240    12.5990 hn         1 UNL       0.327325
     27 H4           3.1860     4.7810    13.1990 hn         1 UNL       0.327325
     28 H5           5.2090    -7.2850     2.6180 hn         1 UNL       0.327325
     29 H6           4.6520    -5.7440     3.0880 hn         1 UNL       0.327325
     30 H7           5.9180     6.1630    14.0320 hn         1 UNL       0.327325
     31 H8           7.0600     5.2010    13.2070 hn         1 UNL       0.327325
     32 H9           6.5780    -1.1790    10.7840 hc         1 UNL       0.080200
     33 H10          5.2370    -0.6240     9.7790 hc         1 UNL       0.080200
     34 H11          7.0390    -2.9430     9.3820 h1         1 UNL       0.069700
     35 H12          5.3080    -2.8440     9.2080 h1         1 UNL       0.069700
     36 H13          7.8830     0.3380     9.8220 h1         1 UNL       0.069700
     37 H14          7.6120    -0.4250     8.2710 h1         1 UNL       0.069700
     38 H15          8.0760    -4.0550     7.5590 ha         1 UNL       0.173500
     39 H16          4.4770     0.9780    10.4830 ha         1 UNL       0.173500
     40 H17          4.5600    -2.5210     5.8480 ha         1 UNL       0.173500
     41 H18          7.6010     3.4050     9.0700 ha         1 UNL       0.173500
     42 H19          7.9660    -5.9730     6.0710 ha         1 UNL       0.153250
     43 H20          3.9510     2.6390    12.1760 ha         1 UNL       0.153250
     44 H21          4.4470    -4.4380     4.3590 ha         1 UNL       0.153250
     45 H22          7.0770     5.0670    10.7620 ha         1 UNL       0.153250
@<TRIPOS>BOND
     1     1     8 1   
     2     1    10 1   
     3     2     9 1   
     4     2    11 1   
     5     3    22 2   
     6     4    23 2   
     7     5    22 1   
     8     6    23 1   
     9     7     8 1   
    10     7     9 1   
    11    10    12 ar  
    12    10    14 ar  
    13    11    13 ar  
    14    11    15 ar  
    15    12    18 ar  
    16    13    19 ar  
    17    14    20 ar  
    18    15    21 ar  
    19    16    18 ar  
    20    16    20 ar  
    21    16    22 1   
    22    17    19 ar  
    23    17    21 ar  
    24    17    23 1   
    25     3    24 1   
    26     3    25 1   
    27     4    26 1   
    28     4    27 1   
    29     5    28 1   
    30     5    29 1   
    31     6    30 1   
    32     6    31 1   
    33     7    32 1   
    34     7    33 1   
    35     8    34 1   
    36     8    35 1   
    37     9    36 1   
    38     9    37 1   
    39    12    38 1   
    40    13    39 1   
    41    14    40 1   
    42    15    41 1   
    43    18    42 1   
    44    19    43 1   
    45    20    44 1   
    46    21    45 1   
@<TRIPOS>SUBSTRUCTURE
     1 UNL         1 TEMP              0 ****  ****    0 ROOT
