@<TRIPOS>MOLECULE
2536
   52    53     1     0     0
SMALL
bcc


@<TRIPOS>ATOM
      1 O1           3.3550    -4.6850    16.9340 os         1 UNL      -0.418900
      2 O2           6.4550    -2.6210    10.2990 os         1 UNL      -0.358200
      3 O3           5.5230    -4.4090    16.1930 o          1 UNL      -0.479000
      4 O4           0.9960    -3.1510    17.0850 o          1 UNL      -0.620100
      5 O5           4.8320    -1.3140     9.2550 o          1 UNL      -0.492000
      6 N6           0.7600    -4.1180    19.1830 n          1 UNL      -0.455800
      7 N7           6.5960    -5.4210     4.6420 nh         1 UNL      -0.328200
      8 N8           4.2390    -5.5560     4.1540 nh         1 UNL      -0.501700
      9 N9           5.7580    -6.5990     2.8080 nh         1 UNL      -0.501700
     10 C10          4.4450    -2.9730    13.9130 ca         1 UNL      -0.069300
     11 C11          3.7140    -3.1000    15.2250 c3         1 UNL      -0.134100
     12 C12          4.8560    -1.7180    13.4630 ca         1 UNL      -0.097500
     13 C13          4.7090    -4.1090    13.1480 ca         1 UNL      -0.097500
     14 C14          5.7960    -2.7360    11.4840 ca         1 UNL       0.088100
     15 C15          5.5310    -1.6000    12.2480 ca         1 UNL      -0.125500
     16 C16          5.3850    -3.9910    11.9340 ca         1 UNL      -0.125500
     17 C17          4.3340    -4.1220    16.1480 c          1 UNL       0.633100
     18 C18          2.9860    -3.9580    18.0860 c3         1 UNL       0.060400
     19 C19          5.8980    -3.0580     8.0290 ca         1 UNL      -0.094600
     20 C20          1.4940    -3.7030    18.0710 c          1 UNL       0.625100
     21 C21          5.6500    -2.2200     9.2300 c          1 UNL       0.640700
     22 C22          6.1500    -4.4230     8.1700 ca         1 UNL      -0.055000
     23 C23          5.8790    -2.4800     6.7590 ca         1 UNL      -0.055000
     24 C24          6.3630    -4.6320     5.7730 ca         1 UNL      -0.052200
     25 C25          6.3820    -5.2090     7.0420 ca         1 UNL      -0.142500
     26 C26          6.1110    -3.2670     5.6310 ca         1 UNL      -0.142500
     27 C27          1.3090    -4.7850    20.3600 c3         1 UNL       0.070300
     28 C28         -0.6820    -3.9010    19.2100 c3         1 UNL       0.070300
     29 C29          5.5720    -5.8220     3.9270 cz         1 UNL       0.525300
     30 H1           7.5140    -5.6710     4.3870 hn         1 UNL       0.333700
     31 H2           3.9340    -5.3080     5.0570 hn         1 UNL       0.329700
     32 H3           3.5930    -5.6140     3.4140 hn         1 UNL       0.329700
     33 H4           5.8260    -6.1770     1.9210 hn         1 UNL       0.329700
     34 H5           5.8230    -7.5780     2.8940 hn         1 UNL       0.329700
     35 H6           2.7030    -3.3880    15.0260 hc         1 UNL       0.103700
     36 H7           3.7700    -2.1500    15.7160 hc         1 UNL       0.103700
     37 H8           4.6600    -0.8770    14.0280 ha         1 UNL       0.152000
     38 H9           4.4050    -5.0370    13.4810 ha         1 UNL       0.152000
     39 H10          5.8360    -0.6720    11.9150 ha         1 UNL       0.150500
     40 H11          5.5800    -4.8320    11.3680 ha         1 UNL       0.150500
     41 H12          3.5070    -3.0230    18.0990 h1         1 UNL       0.084200
     42 H13          3.2410    -4.5230    18.9580 h1         1 UNL       0.084200
     43 H14          6.1640    -4.8500     9.1100 ha         1 UNL       0.187000
     44 H15          5.6920    -1.4710     6.6550 ha         1 UNL       0.187000
     45 H16          6.5690    -6.2190     7.1470 ha         1 UNL       0.156500
     46 H17          6.0970    -2.8400     4.6920 ha         1 UNL       0.156500
     47 H18          2.3670    -4.8970    20.2450 h1         1 UNL       0.051700
     48 H19          0.8580    -5.7500    20.4660 h1         1 UNL       0.051700
     49 H20          1.1050    -4.1980    21.2310 h1         1 UNL       0.051700
     50 H21         -0.9860    -3.4090    18.3100 h1         1 UNL       0.051700
     51 H22         -0.9350    -3.2920    20.0530 h1         1 UNL       0.051700
     52 H23         -1.1820    -4.8440    19.2880 h1         1 UNL       0.051700
@<TRIPOS>BOND
     1     1    17 1   
     2     1    18 1   
     3     2    14 1   
     4     2    21 1   
     5     3    17 2   
     6     4    20 2   
     7     5    21 2   
     8     6    20 1   
     9     6    27 1   
    10     6    28 1   
    11     7    24 1   
    12     7    29 2   
    13     8    29 1   
    14     9    29 1   
    15    10    11 1   
    16    10    12 ar  
    17    10    13 ar  
    18    11    17 1   
    19    12    15 ar  
    20    13    16 ar  
    21    14    15 ar  
    22    14    16 ar  
    23    18    20 1   
    24    19    21 1   
    25    19    22 ar  
    26    19    23 ar  
    27    22    25 ar  
    28    23    26 ar  
    29    24    25 ar  
    30    24    26 ar  
    31     7    30 1   
    32     8    31 1   
    33     8    32 1   
    34     9    33 1   
    35     9    34 1   
    36    11    35 1   
    37    11    36 1   
    38    12    37 1   
    39    13    38 1   
    40    15    39 1   
    41    16    40 1   
    42    18    41 1   
    43    18    42 1   
    44    22    43 1   
    45    23    44 1   
    46    25    45 1   
    47    26    46 1   
    48    27    47 1   
    49    27    48 1   
    50    27    49 1   
    51    28    50 1   
    52    28    51 1   
    53    28    52 1   
@<TRIPOS>SUBSTRUCTURE
     1 UNL         1 TEMP              0 ****  ****    0 ROOT
