@<TRIPOS>MOLECULE
*****
   65    68     1     0     0
SMALL
bcc


@<TRIPOS>ATOM
      1 C1           4.8180    -4.4800     4.5360 ca         1 UNL      -0.092000
      2 C2           4.4830    -3.4030     5.3640 ca         1 UNL      -0.126000
      3 C3           5.2030    -3.2230     6.5580 ca         1 UNL       0.135400
      4 C4           6.2010    -4.1300     6.8980 ca         1 UNL      -0.187200
      5 C5           6.5460    -5.2260     6.1100 ca         1 UNL       0.008000
      6 C6           5.8330    -5.3630     4.9130 ca         1 UNL      -0.349900
      7 C7           6.1920    -6.4740     4.0090 ce         1 UNL       0.496400
      8 N8           5.4090    -6.7620     3.0140 nh         1 UNL      -0.526100
      9 N9           7.3640    -7.1530     4.2840 nh         1 UNL      -0.510200
     10 N10          6.6910    -3.6710     8.0920 na         1 UNL      -0.195300
     11 C11          6.0090    -2.5240     8.4210 cc         1 UNL       0.414400
     12 N12          5.0950    -2.2400     7.5140 nd         1 UNL      -0.640100
     13 C13          6.2810    -1.7740     9.6360 ca         1 UNL      -0.176900
     14 C14          7.3870    -0.9200     9.6660 ca         1 UNL      -0.032000
     15 C15          7.6890    -0.1880    10.8180 ca         1 UNL      -0.112300
     16 C16          6.8930    -0.3600    11.9630 ca         1 UNL      -0.062000
     17 C17          5.7570    -1.1960    11.9630 cp         1 UNL      -0.098000
     18 C18          5.4630    -1.8830    10.7710 ca         1 UNL       0.176100
     19 O19          4.3540    -2.6880    10.7080 oh         1 UNL      -0.512100
     20 C20          4.9020    -1.2700    13.1690 cp         1 UNL      -0.049000
     21 C21          4.6230    -2.5240    13.7420 ca         1 UNL       0.035000
     22 C22          3.7780    -2.6400    14.8530 ca         1 UNL      -0.440500
     23 C23          3.2340    -1.5140    15.4580 ca         1 UNL       0.013000
     24 C24          3.5130    -0.2590    14.9190 ca         1 UNL      -0.252000
     25 C25          4.3180    -0.1470    13.7790 ca         1 UNL       0.193100
     26 O26          4.5420     1.1120    13.2900 oh         1 UNL      -0.473100
     27 S27          3.4140    -4.2750    15.4090 sy         1 UNL       1.535200
     28 O28          2.5820    -4.1250    16.5870 o          1 UNL      -0.668800
     29 O29          2.9500    -5.0040    14.2450 o          1 UNL      -0.668800
     30 N30          4.9230    -4.9090    15.8930 n3         1 UNL      -1.025700
     31 C31          8.8460     0.7780    10.8210 c3         1 UNL      -0.107100
     32 C32          8.5900     2.0300    10.0000 c          1 UNL       0.649100
     33 O33          7.8930     2.0680     8.9900 o          1 UNL      -0.651100
     34 N34          9.2210     3.1350    10.5440 n          1 UNL      -0.504900
     35 C35         10.4350     3.6960     9.9650 c3         1 UNL      -0.048300
     36 C36         10.1490     4.6080     8.7650 c3         1 UNL      -0.121400
     37 C37         11.3700     4.8760     7.9140 c          1 UNL       0.899600
     38 O38         12.5250     4.9390     8.3110 o          1 UNL      -0.630800
     39 O39         11.0030     5.1270     6.6310 o          1 UNL      -0.630800
     40 C40         11.1080     4.4670    11.0850 c          1 UNL       0.911600
     41 O41         12.2550     4.2600    11.4630 o          1 UNL      -0.823300
     42 O42         10.3190     5.4420    11.6060 o          1 UNL      -0.823300
     43 H1           4.3140    -4.6230     3.6470 ha         1 UNL       0.101000
     44 H2           3.7240    -2.7540     5.1030 ha         1 UNL       0.140000
     45 H3           7.2800    -5.8950     6.3910 ha         1 UNL       0.135000
     46 H4           4.5860    -6.2410     2.8680 hn         1 UNL       0.293700
     47 H5           5.6380    -7.5000     2.4050 hn         1 UNL       0.293700
     48 H6           7.9820    -7.3850     3.5530 hn         1 UNL       0.293700
     49 H7           7.5810    -7.4060     5.2100 hn         1 UNL       0.293700
     50 H8           7.4070    -4.0900     8.6220 hn         1 UNL       0.290700
     51 H9           7.9860    -0.8290     8.8310 ha         1 UNL       0.181000
     52 H10          7.1470     0.1400    12.8290 ha         1 UNL       0.139000
     53 H11          3.5900    -2.3980    10.2510 ho         1 UNL       0.448000
     54 H12          5.0470    -3.3730    13.3370 ha         1 UNL       0.157000
     55 H13          2.6330    -1.6050    16.2920 ha         1 UNL       0.155000
     56 H14          3.1270     0.5890    15.3620 ha         1 UNL       0.136000
     57 H15          4.0830     1.8440    13.6530 ho         1 UNL       0.423000
     58 H16          5.6090    -4.1550    15.9400 hn         1 UNL       0.444300
     59 H17          5.2320    -5.6070    15.2160 hn         1 UNL       0.444300
     60 H18          9.7040     0.2800    10.4200 hc         1 UNL       0.065200
     61 H19          8.9940     1.0900    11.8340 hc         1 UNL       0.065200
     62 H20          8.8370     3.5560    11.3480 hn         1 UNL       0.324500
     63 H21         11.0600     2.9170     9.5820 h1         1 UNL       0.080700
     64 H22          9.7770     5.5420     9.1280 hc         1 UNL       0.085200
     65 H23          9.4360     4.1030     8.1460 hc         1 UNL       0.085200
@<TRIPOS>BOND
     1     1     2 ar  
     2     1     6 ar  
     3     2     3 ar  
     4     3     4 ar  
     5     3    12 1   
     6     4     5 ar  
     7     4    10 1   
     8     5     6 ar  
     9     6     7 1   
    10     7     8 2   
    11     7     9 1   
    12    10    11 1   
    13    11    12 2   
    14    11    13 1   
    15    13    14 ar  
    16    13    18 ar  
    17    14    15 ar  
    18    15    16 ar  
    19    15    31 1   
    20    16    17 ar  
    21    17    18 ar  
    22    17    20 1   
    23    18    19 1   
    24    20    21 ar  
    25    20    25 ar  
    26    21    22 ar  
    27    22    23 ar  
    28    22    27 1   
    29    23    24 ar  
    30    24    25 ar  
    31    25    26 1   
    32    27    28 2   
    33    27    29 2   
    34    27    30 1   
    35    31    32 1   
    36    32    33 2   
    37    32    34 1   
    38    34    35 1   
    39    35    36 1   
    40    35    40 1   
    41    36    37 1   
    42    37    38 1   
    43    37    39 1   
    44    40    41 1   
    45    40    42 1   
    46     1    43 1   
    47     2    44 1   
    48     5    45 1   
    49     8    46 1   
    50     8    47 1   
    51     9    48 1   
    52     9    49 1   
    53    10    50 1   
    54    14    51 1   
    55    16    52 1   
    56    19    53 1   
    57    21    54 1   
    58    23    55 1   
    59    24    56 1   
    60    26    57 1   
    61    30    58 1   
    62    30    59 1   
    63    31    60 1   
    64    31    61 1   
    65    34    62 1   
    66    35    63 1   
    67    36    64 1   
    68    36    65 1   
@<TRIPOS>SUBSTRUCTURE
     1 UNL         1 TEMP              0 ****  ****    0 ROOT
