@<TRIPOS>MOLECULE
64949
   45    46     1     0     0
SMALL
bcc


@<TRIPOS>ATOM
      1 O1           4.7410    -6.6400    11.2250 os         1 UNL      -0.304900
      2 O2           6.0770    -3.2240     8.6350 os         1 UNL      -0.304900
      3 N3          -0.5490    -8.5050    14.3920 nh         1 UNL      -0.469350
      4 N4           6.7560    -7.9560     4.3200 nh         1 UNL      -0.469350
      5 N5          -0.9220    -9.3630    12.2510 nh         1 UNL      -0.453450
      6 N6           5.7930    -6.2530     3.0420 nh         1 UNL      -0.453450
      7 C7           5.1900    -4.3890    10.5470 c3         1 UNL      -0.148400
      8 C8           4.6840    -5.7560    10.1140 c3         1 UNL       0.124400
      9 C9           4.9430    -3.3280     9.4860 c3         1 UNL       0.124400
     10 C10          3.5480    -7.1410    11.6780 ca         1 UNL       0.198100
     11 C11          6.1190    -4.0650     7.5540 ca         1 UNL       0.198100
     12 C12          2.6430    -6.2960    12.3110 ca         1 UNL      -0.178500
     13 C13          6.8240    -5.2600     7.6390 ca         1 UNL      -0.178500
     14 C14          3.2550    -8.4880    11.4980 ca         1 UNL      -0.178500
     15 C15          5.4540    -3.7140     6.3840 ca         1 UNL      -0.178500
     16 C16          1.1280    -8.1560    12.5940 ca         1 UNL      -0.301900
     17 C17          6.2010    -5.7720     5.3610 ca         1 UNL      -0.301900
     18 C18          1.4290    -6.8060    12.7710 ca         1 UNL      -0.039750
     19 C19          6.8650    -6.1160     6.5380 ca         1 UNL      -0.039750
     20 C20          2.0410    -8.9970    11.9570 ca         1 UNL      -0.039750
     21 C21          5.4950    -4.5710     5.2840 ca         1 UNL      -0.039750
     22 C22         -0.1380    -8.6880    13.0730 ce         1 UNL       0.527400
     23 C23          6.2440    -6.6650     4.2140 ce         1 UNL       0.527400
     24 H1          -0.1260    -9.0220    15.1160 hn         1 UNL       0.327700
     25 H2          -1.2610    -7.8590    14.6010 hn         1 UNL       0.327700
     26 H3           7.2530    -8.2250     5.1260 hn         1 UNL       0.327700
     27 H4           6.6220    -8.6010     3.5870 hn         1 UNL       0.327700
     28 H5          -1.7790    -9.7240    12.5730 hn         1 UNL       0.327700
     29 H6          -0.6480    -9.5060    11.3160 hn         1 UNL       0.327700
     30 H7           5.8210    -6.8560     2.2650 hn         1 UNL       0.327700
     31 H8           5.4300    -5.3430     2.9470 hn         1 UNL       0.327700
     32 H9           6.2420    -4.4530    10.7340 hc         1 UNL       0.072200
     33 H10          4.6570    -4.1040    11.4290 hc         1 UNL       0.072200
     34 H11          3.6740    -5.6730     9.7710 h1         1 UNL       0.076450
     35 H12          5.2940    -6.1330     9.3190 h1         1 UNL       0.076450
     36 H13          4.0870    -3.6000     8.9040 h1         1 UNL       0.076450
     37 H14          4.7720    -2.3860     9.9620 h1         1 UNL       0.076450
     38 H15          2.8690    -5.2980    12.4400 ha         1 UNL       0.174000
     39 H16          7.3140    -5.5120     8.5110 ha         1 UNL       0.174000
     40 H17          3.9330    -9.1070    11.0260 ha         1 UNL       0.174000
     41 H18          4.9330    -2.8250     6.3300 ha         1 UNL       0.174000
     42 H19          0.7540    -6.1840    13.2420 ha         1 UNL       0.154000
     43 H20          7.3870    -7.0050     6.5950 ha         1 UNL       0.154000
     44 H21          1.8180    -9.9960    11.8270 ha         1 UNL       0.154000
     45 H22          5.0040    -4.3160     4.4130 ha         1 UNL       0.154000
@<TRIPOS>BOND
     1     1     8 1   
     2     1    10 1   
     3     2     9 1   
     4     2    11 1   
     5     3    22 2   
     6     4    23 2   
     7     5    22 1   
     8     6    23 1   
     9     7     8 1   
    10     7     9 1   
    11    10    12 ar  
    12    10    14 ar  
    13    11    13 ar  
    14    11    15 ar  
    15    12    18 ar  
    16    13    19 ar  
    17    14    20 ar  
    18    15    21 ar  
    19    16    18 ar  
    20    16    20 ar  
    21    16    22 1   
    22    17    19 ar  
    23    17    21 ar  
    24    17    23 1   
    25     3    24 1   
    26     3    25 1   
    27     4    26 1   
    28     4    27 1   
    29     5    28 1   
    30     5    29 1   
    31     6    30 1   
    32     6    31 1   
    33     7    32 1   
    34     7    33 1   
    35     8    34 1   
    36     8    35 1   
    37     9    36 1   
    38     9    37 1   
    39    12    38 1   
    40    13    39 1   
    41    14    40 1   
    42    15    41 1   
    43    18    42 1   
    44    19    43 1   
    45    20    44 1   
    46    21    45 1   
@<TRIPOS>SUBSTRUCTURE
     1 UNL         1 TEMP              0 ****  ****    0 ROOT
