@<TRIPOS>MOLECULE
64949
   45    46     1     0     0
SMALL
bcc


@<TRIPOS>ATOM
      1 O1           4.5960    -3.2800    11.0670 os         1 UNL      -0.308900
      2 O2           6.1220    -2.1750     7.5690 os         1 UNL      -0.308900
      3 N3           3.7670    -9.6620    10.8250 nh         1 UNL      -0.469100
      4 N4           5.5280    -6.4870     2.8210 nh         1 UNL      -0.469100
      5 N5           3.1700    -9.1670    13.0300 nh         1 UNL      -0.453200
      6 N6           6.7990    -7.6540     4.3980 nh         1 UNL      -0.453200
      7 C7           6.3250    -2.0460     9.9650 c3         1 UNL      -0.142400
      8 C8           5.9440    -2.8510    11.1970 c3         1 UNL       0.120400
      9 C9           5.4090    -2.3390     8.7870 c3         1 UNL       0.120400
     10 C10          4.3500    -4.6140    11.2600 ca         1 UNL       0.198100
     11 C11          6.1330    -3.2440     6.7110 ca         1 UNL       0.198100
     12 C12          3.0800    -5.0310    11.6410 ca         1 UNL      -0.181000
     13 C13          5.3870    -3.1920     5.5390 ca         1 UNL      -0.181000
     14 C14          5.3730    -5.5370    11.0710 ca         1 UNL      -0.181000
     15 C15          6.8920    -4.3670     7.0200 ca         1 UNL      -0.181000
     16 C16          3.8500    -7.3210    11.6490 ca         1 UNL      -0.302900
     17 C17          6.1580    -5.4100     4.9680 ca         1 UNL      -0.302900
     18 C18          2.8290    -6.3890    11.8360 ca         1 UNL      -0.039000
     19 C19          5.4000    -4.2790     4.6650 ca         1 UNL      -0.039000
     20 C20          5.1220    -6.8950    11.2660 ca         1 UNL      -0.039000
     21 C21          6.9040    -5.4540     6.1460 ca         1 UNL      -0.039000
     22 C22          3.5890    -8.7370    11.8530 ce         1 UNL       0.527400
     23 C23          6.1710    -6.5430     4.0570 ce         1 UNL       0.527400
     24 H1           3.1450   -10.4190    10.7310 hn         1 UNL       0.327450
     25 H2           4.5140    -9.5580    10.1930 hn         1 UNL       0.327450
     26 H3           4.5460    -6.5430     2.7740 hn         1 UNL       0.327450
     27 H4           6.0560    -6.3920     1.9960 hn         1 UNL       0.327450
     28 H5           2.9930   -10.1250    13.1690 hn         1 UNL       0.327450
     29 H6           3.0350    -8.5290    13.7670 hn         1 UNL       0.327450
     30 H7           6.8090    -8.4230     3.7820 hn         1 UNL       0.327450
     31 H8           7.2560    -7.7150     5.2670 hn         1 UNL       0.327450
     32 H9           7.3300    -2.2900     9.6910 hc         1 UNL       0.068700
     33 H10          6.2310    -1.0080    10.2070 hc         1 UNL       0.068700
     34 H11          6.5850    -3.7030    11.2820 h1         1 UNL       0.083700
     35 H12          6.0490    -2.2450    12.0730 h1         1 UNL       0.083700
     36 H13          5.0520    -3.3450     8.8570 h1         1 UNL       0.083700
     37 H14          4.5820    -1.6600     8.8060 h1         1 UNL       0.083700
     38 H15          2.3260    -4.3400    11.7790 ha         1 UNL       0.173500
     39 H16          4.8270    -2.3540     5.3170 ha         1 UNL       0.173500
     40 H17          6.3130    -5.2180    10.7880 ha         1 UNL       0.173500
     41 H18          7.4430    -4.3970     7.8930 ha         1 UNL       0.173500
     42 H19          1.8880    -6.7050    12.1200 ha         1 UNL       0.153500
     43 H20          4.8470    -4.2470     3.7940 ha         1 UNL       0.153500
     44 H21          5.8770    -7.5840    11.1280 ha         1 UNL       0.153500
     45 H22          7.4650    -6.2900     6.3700 ha         1 UNL       0.153500
@<TRIPOS>BOND
     1     1     8 1   
     2     1    10 1   
     3     2     9 1   
     4     2    11 1   
     5     3    22 2   
     6     4    23 2   
     7     5    22 1   
     8     6    23 1   
     9     7     8 1   
    10     7     9 1   
    11    10    12 ar  
    12    10    14 ar  
    13    11    13 ar  
    14    11    15 ar  
    15    12    18 ar  
    16    13    19 ar  
    17    14    20 ar  
    18    15    21 ar  
    19    16    18 ar  
    20    16    20 ar  
    21    16    22 1   
    22    17    19 ar  
    23    17    21 ar  
    24    17    23 1   
    25     3    24 1   
    26     3    25 1   
    27     4    26 1   
    28     4    27 1   
    29     5    28 1   
    30     5    29 1   
    31     6    30 1   
    32     6    31 1   
    33     7    32 1   
    34     7    33 1   
    35     8    34 1   
    36     8    35 1   
    37     9    36 1   
    38     9    37 1   
    39    12    38 1   
    40    13    39 1   
    41    14    40 1   
    42    15    41 1   
    43    18    42 1   
    44    19    43 1   
    45    20    44 1   
    46    21    45 1   
@<TRIPOS>SUBSTRUCTURE
     1 UNL         1 TEMP              0 ****  ****    0 ROOT
