@<TRIPOS>MOLECULE
64949
   45    46     1     0     0
SMALL
bcc


@<TRIPOS>ATOM
      1 O1           5.4380     0.0520     9.7550 os         1 UNL      -0.303900
      2 O2           7.7130    -3.7380     8.3990 os         1 UNL      -0.303900
      3 N3           9.8570     4.4910    11.2540 nh         1 UNL      -0.469600
      4 N4           3.9290    -5.5320     3.5050 nh         1 UNL      -0.469600
      5 N5           9.4020     4.9800     9.0140 nh         1 UNL      -0.453700
      6 N6           5.8990    -6.7100     3.0690 nh         1 UNL      -0.453700
      7 C7           6.9750    -1.7740     9.5820 c3         1 UNL      -0.148400
      8 C8           5.8060    -1.1830    10.3530 c3         1 UNL       0.124400
      9 C9           6.8590    -3.2840     9.4410 c3         1 UNL       0.124400
     10 C10          6.3500     1.0720     9.8320 ca         1 UNL       0.198100
     11 C11          7.1070    -4.2590     7.2860 ca         1 UNL       0.198100
     12 C12          5.9060     2.3810     9.9840 ca         1 UNL      -0.179000
     13 C13          6.5740    -3.4030     6.3290 ca         1 UNL      -0.179000
     14 C14          7.7090     0.7880     9.7580 ca         1 UNL      -0.179000
     15 C15          7.0320    -5.6380     7.1250 ca         1 UNL      -0.179000
     16 C16          8.1990     3.1420     9.9900 ca         1 UNL      -0.301900
     17 C17          5.8800    -5.3150     5.0260 ca         1 UNL      -0.301900
     18 C18          6.8340     3.4190    10.0630 ca         1 UNL      -0.039500
     19 C19          5.9590    -3.9330     5.1950 ca         1 UNL      -0.039500
     20 C20          8.6360     1.8260     9.8370 ca         1 UNL      -0.039500
     21 C21          6.4170    -6.1680     5.9910 ca         1 UNL      -0.039500
     22 C22          9.1670     4.2250    10.0730 ce         1 UNL       0.527400
     23 C23          5.2380    -5.8680     3.8440 ce         1 UNL       0.527400
     24 H1          10.1780     3.7490    11.8140 hn         1 UNL       0.327700
     25 H2          10.0230     5.4220    11.5270 hn         1 UNL       0.327700
     26 H3           3.7560    -4.9290     2.7460 hn         1 UNL       0.327700
     27 H4           3.1770    -5.8960     4.0250 hn         1 UNL       0.327700
     28 H5          10.0560     5.7130     9.0680 hn         1 UNL       0.327700
     29 H6           8.9220     4.8090     8.1710 hn         1 UNL       0.327700
     30 H7           5.4660    -7.0860     2.2690 hn         1 UNL       0.327700
     31 H8           6.8240    -6.9630     3.2930 hn         1 UNL       0.327700
     32 H9           7.8820    -1.5440    10.1000 hc         1 UNL       0.072700
     33 H10          6.9710    -1.3490     8.6000 hc         1 UNL       0.072700
     34 H11          4.9770    -1.8590    10.3220 h1         1 UNL       0.076200
     35 H12          6.0890    -1.0230    11.3730 h1         1 UNL       0.076200
     36 H13          7.1440    -3.7490    10.3620 h1         1 UNL       0.076200
     37 H14          5.8470    -3.5400     9.2050 h1         1 UNL       0.076200
     38 H15          4.8960     2.5830    10.0370 ha         1 UNL       0.174000
     39 H16          6.6340    -2.3810     6.4560 ha         1 UNL       0.174000
     40 H17          8.0290    -0.1870     9.6460 ha         1 UNL       0.174000
     41 H18          7.4310    -6.2660     7.8400 ha         1 UNL       0.174000
     42 H19          6.5110     4.3930    10.1750 ha         1 UNL       0.154000
     43 H20          5.5610    -3.3020     4.4810 ha         1 UNL       0.154000
     44 H21          9.6460     1.6210     9.7840 ha         1 UNL       0.154000
     45 H22          6.3590    -7.1900     5.8660 ha         1 UNL       0.154000
@<TRIPOS>BOND
     1     1     8 1   
     2     1    10 1   
     3     2     9 1   
     4     2    11 1   
     5     3    22 2   
     6     4    23 2   
     7     5    22 1   
     8     6    23 1   
     9     7     8 1   
    10     7     9 1   
    11    10    12 ar  
    12    10    14 ar  
    13    11    13 ar  
    14    11    15 ar  
    15    12    18 ar  
    16    13    19 ar  
    17    14    20 ar  
    18    15    21 ar  
    19    16    18 ar  
    20    16    20 ar  
    21    16    22 1   
    22    17    19 ar  
    23    17    21 ar  
    24    17    23 1   
    25     3    24 1   
    26     3    25 1   
    27     4    26 1   
    28     4    27 1   
    29     5    28 1   
    30     5    29 1   
    31     6    30 1   
    32     6    31 1   
    33     7    32 1   
    34     7    33 1   
    35     8    34 1   
    36     8    35 1   
    37     9    36 1   
    38     9    37 1   
    39    12    38 1   
    40    13    39 1   
    41    14    40 1   
    42    15    41 1   
    43    18    42 1   
    44    19    43 1   
    45    20    44 1   
    46    21    45 1   
@<TRIPOS>SUBSTRUCTURE
     1 UNL         1 TEMP              0 ****  ****    0 ROOT
