@<TRIPOS>MOLECULE
2536
   52    53     1     0     0
SMALL
bcc


@<TRIPOS>ATOM
      1 O1           9.1550     5.0860     9.9120 os         1 UNL      -0.420900
      2 O2           6.1170    -1.9790    10.4900 os         1 UNL      -0.359200
      3 O3           9.5160     2.9410     9.1440 o          1 UNL      -0.523000
      4 O4          10.7620     5.5340     7.9070 o          1 UNL      -0.614100
      5 O5           3.9700    -1.9870     9.5810 o          1 UNL      -0.489000
      6 N6          12.5520     6.2610     9.1940 n          1 UNL      -0.473800
      7 N7           7.1470    -6.1660     5.8780 nh         1 UNL      -0.328200
      8 N8           5.2140    -5.9230     4.4590 nh         1 UNL      -0.501700
      9 N9           6.8920    -7.3610     3.8880 nh         1 UNL      -0.501700
     10 C10          7.0750     2.0550    10.3080 ca         1 UNL      -0.081300
     11 C11          7.4230     3.5200    10.2420 c3         1 UNL      -0.080100
     12 C12          7.0900     1.3890    11.5330 ca         1 UNL      -0.102000
     13 C13          6.7370     1.3650     9.1430 ca         1 UNL      -0.102000
     14 C14          6.4310    -0.6560    10.4300 ca         1 UNL       0.087100
     15 C15          6.7680     0.0340    11.5940 ca         1 UNL      -0.124500
     16 C16          6.4150     0.0100     9.2040 ca         1 UNL      -0.124500
     17 C17          8.8080     3.7730     9.6960 c          1 UNL       0.642100
     18 C18         10.5040     5.3270    10.2530 c3         1 UNL       0.065400
     19 C19          5.6560    -3.3680     8.6160 ca         1 UNL      -0.092600
     20 C20         11.2820     5.7130     9.0120 c          1 UNL       0.645100
     21 C21          5.1280    -2.3770     9.5860 c          1 UNL       0.639700
     22 C22          6.1020    -2.9490     7.3620 ca         1 UNL      -0.055000
     23 C23          5.7070    -4.7200     8.9580 ca         1 UNL      -0.055000
     24 C24          6.6490    -5.2320     6.7920 ca         1 UNL      -0.053200
     25 C25          6.5980    -3.8800     6.4510 ca         1 UNL      -0.142500
     26 C26          6.2040    -5.6510     8.0460 ca         1 UNL      -0.142500
     27 C27         13.1930     6.5010    10.4840 c3         1 UNL       0.076800
     28 C28         13.3350     6.6560     8.0300 c3         1 UNL       0.076800
     29 C29          6.4380    -6.4490     4.8120 cz         1 UNL       0.525300
     30 H1           8.0160    -6.6030     6.0330 hn         1 UNL       0.333700
     31 H2           5.1660    -5.0660     3.9780 hn         1 UNL       0.329200
     32 H3           4.3870    -6.4060     4.6880 hn         1 UNL       0.329200
     33 H4           6.8320    -7.1590     2.9260 hn         1 UNL       0.329200
     34 H5           7.2760    -8.2160     4.1890 hn         1 UNL       0.329200
     35 H6           7.3660     3.9290    11.2300 hc         1 UNL       0.090700
     36 H7           6.7260     3.9860     9.5770 hc         1 UNL       0.090700
     37 H8           7.3400     1.9000    12.3950 ha         1 UNL       0.165000
     38 H9           6.7260     1.8580     8.2370 ha         1 UNL       0.165000
     39 H10          6.7800    -0.4590    12.5010 ha         1 UNL       0.150500
     40 H11          6.1660    -0.5010     8.3430 ha         1 UNL       0.150500
     41 H12         10.9270     4.4410    10.6770 h1         1 UNL       0.093200
     42 H13         10.5520     6.1250    10.9640 h1         1 UNL       0.093200
     43 H14          6.0640    -1.9490     7.1100 ha         1 UNL       0.187500
     44 H15          5.3780    -5.0300     9.8850 ha         1 UNL       0.187500
     45 H16          6.9280    -3.5700     5.5240 ha         1 UNL       0.156000
     46 H17          6.2410    -6.6510     8.2990 ha         1 UNL       0.156000
     47 H18         12.5430     6.1800    11.2710 h1         1 UNL       0.046033
     48 H19         13.3960     7.5460    10.5930 h1         1 UNL       0.046033
     49 H20         14.1110     5.9530    10.5340 h1         1 UNL       0.046033
     50 H21         12.7830     6.4410     7.1390 h1         1 UNL       0.046033
     51 H22         14.2570     6.1110     8.0190 h1         1 UNL       0.046033
     52 H23         13.5410     7.7040     8.0780 h1         1 UNL       0.046033
@<TRIPOS>BOND
     1     1    17 1   
     2     1    18 1   
     3     2    14 1   
     4     2    21 1   
     5     3    17 2   
     6     4    20 2   
     7     5    21 2   
     8     6    20 1   
     9     6    27 1   
    10     6    28 1   
    11     7    24 1   
    12     7    29 2   
    13     8    29 1   
    14     9    29 1   
    15    10    11 1   
    16    10    12 ar  
    17    10    13 ar  
    18    11    17 1   
    19    12    15 ar  
    20    13    16 ar  
    21    14    15 ar  
    22    14    16 ar  
    23    18    20 1   
    24    19    21 1   
    25    19    22 ar  
    26    19    23 ar  
    27    22    25 ar  
    28    23    26 ar  
    29    24    25 ar  
    30    24    26 ar  
    31     7    30 1   
    32     8    31 1   
    33     8    32 1   
    34     9    33 1   
    35     9    34 1   
    36    11    35 1   
    37    11    36 1   
    38    12    37 1   
    39    13    38 1   
    40    15    39 1   
    41    16    40 1   
    42    18    41 1   
    43    18    42 1   
    44    22    43 1   
    45    23    44 1   
    46    25    45 1   
    47    26    46 1   
    48    27    47 1   
    49    27    48 1   
    50    27    49 1   
    51    28    50 1   
    52    28    51 1   
    53    28    52 1   
@<TRIPOS>SUBSTRUCTURE
     1 UNL         1 TEMP              0 ****  ****    0 ROOT
