@<TRIPOS>MOLECULE
64949
   45    46     1     0     0
SMALL
bcc


@<TRIPOS>ATOM
      1 O1           4.7300    -7.3570    11.4540 os         1 UNL      -0.311900
      2 O2           6.2130    -3.9050     9.7820 os         1 UNL      -0.311900
      3 N3          -1.5320    -8.7770    11.9650 nh         1 UNL      -0.469350
      4 N4           5.6580    -5.6680     3.6120 nh         1 UNL      -0.469350
      5 N5          -0.9460    -8.3080    14.1780 nh         1 UNL      -0.453450
      6 N6           7.3560    -7.0780     4.3820 nh         1 UNL      -0.453450
      7 C7           6.5940    -5.9100    11.0590 c3         1 UNL      -0.120400
      8 C8           5.1000    -5.9910    11.3240 c3         1 UNL       0.124400
      9 C9           7.0470    -4.4870    10.7750 c3         1 UNL       0.124400
     10 C10          3.4310    -7.6140    11.8100 ca         1 UNL       0.200100
     11 C11          6.2800    -4.4450     8.5240 ca         1 UNL       0.200100
     12 C12          2.9920    -8.9300    11.9020 ca         1 UNL      -0.179750
     13 C13          5.6570    -3.7980     7.4630 ca         1 UNL      -0.179750
     14 C14          2.5680    -6.5570    12.0760 ca         1 UNL      -0.179750
     15 C15          6.9710    -5.6350     8.3230 ca         1 UNL      -0.179750
     16 C16          0.7990    -8.1370    12.5340 ca         1 UNL      -0.302900
     17 C17          6.4180    -5.5400     5.9730 ca         1 UNL      -0.302900
     18 C18          1.6710    -9.1920    12.2650 ca         1 UNL      -0.039500
     19 C19          5.7260    -4.3470     6.1830 ca         1 UNL      -0.039500
     20 C20          1.2470    -6.8200    12.4390 ca         1 UNL      -0.039500
     21 C21          7.0400    -6.1840     7.0420 ca         1 UNL      -0.039500
     22 C22         -0.5790    -8.4100    12.9130 ce         1 UNL       0.527400
     23 C23          6.4900    -6.1130     4.6380 ce         1 UNL       0.527400
     24 H1          -2.4320    -8.3790    11.9920 hn         1 UNL       0.327200
     25 H2          -1.3050    -9.4340    11.2670 hn         1 UNL       0.327200
     26 H3           4.6850    -5.6210     3.7530 hn         1 UNL       0.327200
     27 H4           6.0440    -5.4010     2.7460 hn         1 UNL       0.327200
     28 H5          -1.8780    -8.4920    14.4360 hn         1 UNL       0.327200
     29 H6          -0.2880    -8.0470    14.8620 hn         1 UNL       0.327200
     30 H7           7.4060    -7.4680     3.4790 hn         1 UNL       0.327200
     31 H8           7.9500    -7.4080     5.0940 hn         1 UNL       0.327200
     32 H9           6.8290    -6.5220    10.2130 hc         1 UNL       0.079700
     33 H10          7.1050    -6.2500    11.9360 hc         1 UNL       0.079700
     34 H11          4.8670    -5.4680    12.2280 h1         1 UNL       0.069950
     35 H12          4.5630    -5.5450    10.5130 h1         1 UNL       0.069950
     36 H13          6.9850    -3.9090    11.6730 h1         1 UNL       0.069950
     37 H14          8.0570    -4.5010    10.4230 h1         1 UNL       0.069950
     38 H15          3.6390    -9.7080    11.7030 ha         1 UNL       0.174250
     39 H16          5.1460    -2.9150     7.6220 ha         1 UNL       0.174250
     40 H17          2.9030    -5.5840    12.0050 ha         1 UNL       0.174250
     41 H18          7.4300    -6.1090     9.1160 ha         1 UNL       0.174250
     42 H19          1.3390   -10.1670    12.3350 ha         1 UNL       0.153500
     43 H20          5.2660    -3.8710     5.3920 ha         1 UNL       0.153500
     44 H21          0.6020    -6.0390    12.6380 ha         1 UNL       0.153500
     45 H22          7.5520    -7.0660     6.8860 ha         1 UNL       0.153500
@<TRIPOS>BOND
     1     1     8 1   
     2     1    10 1   
     3     2     9 1   
     4     2    11 1   
     5     3    22 2   
     6     4    23 2   
     7     5    22 1   
     8     6    23 1   
     9     7     8 1   
    10     7     9 1   
    11    10    12 ar  
    12    10    14 ar  
    13    11    13 ar  
    14    11    15 ar  
    15    12    18 ar  
    16    13    19 ar  
    17    14    20 ar  
    18    15    21 ar  
    19    16    18 ar  
    20    16    20 ar  
    21    16    22 1   
    22    17    19 ar  
    23    17    21 ar  
    24    17    23 1   
    25     3    24 1   
    26     3    25 1   
    27     4    26 1   
    28     4    27 1   
    29     5    28 1   
    30     5    29 1   
    31     6    30 1   
    32     6    31 1   
    33     7    32 1   
    34     7    33 1   
    35     8    34 1   
    36     8    35 1   
    37     9    36 1   
    38     9    37 1   
    39    12    38 1   
    40    13    39 1   
    41    14    40 1   
    42    15    41 1   
    43    18    42 1   
    44    19    43 1   
    45    20    44 1   
    46    21    45 1   
@<TRIPOS>SUBSTRUCTURE
     1 UNL         1 TEMP              0 ****  ****    0 ROOT
