@<TRIPOS>MOLECULE
64949
   45    46     1     0     0
SMALL
bcc


@<TRIPOS>ATOM
      1 O1           5.7950    -2.9420     8.3700 os         1 UNL      -0.319900
      2 O2           5.4640     0.0370     9.5240 os         1 UNL      -0.319900
      3 N3           6.8920    -7.7950     4.2790 nh         1 UNL      -0.469850
      4 N4          10.1640     4.2080    10.9390 nh         1 UNL      -0.469850
      5 N5           5.5380    -6.3720     3.0120 nh         1 UNL      -0.453950
      6 N6           9.4660     4.9410     8.8320 nh         1 UNL      -0.453950
      7 C7           4.5030    -2.0700    10.1850 c3         1 UNL      -0.093400
      8 C8           4.4920    -2.5050     8.7290 c3         1 UNL       0.123400
      9 C9           5.5750    -1.0270    10.4600 c3         1 UNL       0.123400
     10 C10          5.8840    -3.8400     7.3380 ca         1 UNL       0.202100
     11 C11          6.4100     1.0260     9.5970 ca         1 UNL       0.202100
     12 C12          6.6270    -5.0040     7.5020 ca         1 UNL      -0.180500
     13 C13          6.0190     2.3580     9.5280 ca         1 UNL      -0.180500
     14 C14          5.2300    -3.5790     6.1400 ca         1 UNL      -0.180500
     15 C15          7.7510     0.6860     9.7400 ca         1 UNL      -0.180500
     16 C16          6.0630    -5.6640     5.2480 ca         1 UNL      -0.303900
     17 C17          8.3290     3.0320     9.7480 ca         1 UNL      -0.303900
     18 C18          6.7170    -5.9180     6.4530 ca         1 UNL      -0.039000
     19 C19          6.9820     3.3650     9.6040 ca         1 UNL      -0.039000
     20 C20          5.3190    -4.4940     5.0910 ca         1 UNL      -0.039000
     21 C21          8.7130     1.6930     9.8160 ca         1 UNL      -0.039000
     22 C22          6.1560    -6.6180     4.1540 ce         1 UNL       0.527400
     23 C23          9.3330     4.0810     9.8270 ce         1 UNL       0.527400
     24 H1           7.2760    -8.0450     5.1510 hn         1 UNL       0.327200
     25 H2           7.0280    -8.3760     3.4960 hn         1 UNL       0.327200
     26 H3          10.5920     5.0710    11.1380 hn         1 UNL       0.327200
     27 H4          10.3230     3.4330    11.5250 hn         1 UNL       0.327200
     28 H5           5.6000    -7.0170     2.2710 hn         1 UNL       0.327200
     29 H6           5.0160    -5.5450     2.9030 hn         1 UNL       0.327200
     30 H7          10.1450     5.6520     8.8840 hn         1 UNL       0.327200
     31 H8           8.8870     4.8700     8.0390 hn         1 UNL       0.327200
     32 H9           4.6880    -2.9260    10.8000 hc         1 UNL       0.091200
     33 H10          3.5520    -1.6320    10.4070 hc         1 UNL       0.091200
     34 H11          3.7950    -3.3060     8.5990 h1         1 UNL       0.063450
     35 H12          4.2000    -1.6840     8.1070 h1         1 UNL       0.063450
     36 H13          5.4500    -0.6420    11.4500 h1         1 UNL       0.063450
     37 H14          6.5400    -1.4790    10.3670 h1         1 UNL       0.063450
     38 H15          7.1100    -5.1890     8.3950 ha         1 UNL       0.174000
     39 H16          5.0220     2.6010     9.4220 ha         1 UNL       0.174000
     40 H17          4.6800    -2.7130     6.0280 ha         1 UNL       0.174000
     41 H18          8.0320    -0.3050     9.7910 ha         1 UNL       0.174000
     42 H19          7.2670    -6.7840     6.5690 ha         1 UNL       0.153000
     43 H20          6.6980     4.3560     9.5530 ha         1 UNL       0.153000
     44 H21          4.8360    -4.3060     4.2000 ha         1 UNL       0.153000
     45 H22          9.7100     1.4470     9.9230 ha         1 UNL       0.153000
@<TRIPOS>BOND
     1     1     8 1   
     2     1    10 1   
     3     2     9 1   
     4     2    11 1   
     5     3    22 2   
     6     4    23 2   
     7     5    22 1   
     8     6    23 1   
     9     7     8 1   
    10     7     9 1   
    11    10    12 ar  
    12    10    14 ar  
    13    11    13 ar  
    14    11    15 ar  
    15    12    18 ar  
    16    13    19 ar  
    17    14    20 ar  
    18    15    21 ar  
    19    16    18 ar  
    20    16    20 ar  
    21    16    22 1   
    22    17    19 ar  
    23    17    21 ar  
    24    17    23 1   
    25     3    24 1   
    26     3    25 1   
    27     4    26 1   
    28     4    27 1   
    29     5    28 1   
    30     5    29 1   
    31     6    30 1   
    32     6    31 1   
    33     7    32 1   
    34     7    33 1   
    35     8    34 1   
    36     8    35 1   
    37     9    36 1   
    38     9    37 1   
    39    12    38 1   
    40    13    39 1   
    41    14    40 1   
    42    15    41 1   
    43    18    42 1   
    44    19    43 1   
    45    20    44 1   
    46    21    45 1   
@<TRIPOS>SUBSTRUCTURE
     1 UNL         1 TEMP              0 ****  ****    0 ROOT
