@<TRIPOS>MOLECULE
2536
   52    53     1     0     0
SMALL
bcc


@<TRIPOS>ATOM
      1 O1           2.6420     0.9480    15.6240 os         1 UNL      -0.435900
      2 O2           5.4140    -2.7640    10.1850 os         1 UNL      -0.361200
      3 O3           1.5410    -1.0520    15.2970 o          1 UNL      -0.529000
      4 O4           1.7830     4.0320    15.2190 o          1 UNL      -0.600100
      5 O5           7.5170    -3.3800    10.9820 o          1 UNL      -0.488000
      6 N6           1.3780     3.1460    17.3270 n          1 UNL      -0.467800
      7 N7           7.1910    -6.3160     5.2780 nh         1 UNL      -0.329200
      8 N8           5.0030    -5.6320     4.5320 nh         1 UNL      -0.501200
      9 N9           6.2980    -6.9830     3.2250 nh         1 UNL      -0.501200
     10 C10          4.3570    -1.4560    13.9790 ca         1 UNL      -0.086300
     11 C11          3.9730    -0.9800    15.3570 c3         1 UNL      -0.083100
     12 C12          5.2260    -0.6960    13.1970 ca         1 UNL      -0.098000
     13 C13          3.8430    -2.6560    13.4870 ca         1 UNL      -0.098000
     14 C14          5.0680    -2.3350    11.4290 ca         1 UNL       0.095100
     15 C15          5.5810    -1.1350    11.9220 ca         1 UNL      -0.126500
     16 C16          4.1990    -3.0950    12.2120 ca         1 UNL      -0.126500
     17 C17          2.5760    -0.4100    15.4150 c          1 UNL       0.642100
     18 C18          1.4770     1.6840    15.3170 c3         1 UNL       0.062400
     19 C19          6.7890    -4.1780     8.8560 ca         1 UNL      -0.094600
     20 C20          1.5630     3.0590    15.9470 c          1 UNL       0.655100
     21 C21          6.6470    -3.4200    10.1250 c          1 UNL       0.640700
     22 C22          6.8430    -3.4980     7.6400 ca         1 UNL      -0.055000
     23 C23          6.8680    -5.5700     8.8810 ca         1 UNL      -0.055000
     24 C24          7.0570    -5.6020     6.4730 ca         1 UNL      -0.051200
     25 C25          6.9770    -4.2100     6.4480 ca         1 UNL      -0.142000
     26 C26          7.0020    -6.2820     7.6890 ca         1 UNL      -0.142000
     27 C27          1.1010     2.0220    18.2170 c3         1 UNL       0.076300
     28 C28          1.4420     4.4500    17.9770 c3         1 UNL       0.076300
     29 C29          6.2060    -6.2950     4.4120 cz         1 UNL       0.525300
     30 H1           8.0120    -6.8260     5.0890 hn         1 UNL       0.333700
     31 H2           4.1980    -6.1220     4.8190 hn         1 UNL       0.329700
     32 H3           4.9490    -4.6700     4.3320 hn         1 UNL       0.329700
     33 H4           6.2110    -6.5030     2.3700 hn         1 UNL       0.329700
     34 H5           6.4500    -7.9560     3.2310 hn         1 UNL       0.329700
     35 H6           4.6640    -0.2220    15.6610 hc         1 UNL       0.092200
     36 H7           4.0000    -1.8290    16.0080 hc         1 UNL       0.092200
     37 H8           5.6060     0.1920    13.5610 ha         1 UNL       0.157000
     38 H9           3.2000    -3.2180    14.0660 ha         1 UNL       0.157000
     39 H10          6.2240    -0.5730    11.3430 ha         1 UNL       0.151500
     40 H11          3.8190    -3.9830    11.8480 ha         1 UNL       0.151500
     41 H12          0.6200     1.1700    15.7000 h1         1 UNL       0.087700
     42 H13          1.3910     1.7850    14.2550 h1         1 UNL       0.087700
     43 H14          6.7840    -2.4680     7.6220 ha         1 UNL       0.187000
     44 H15          6.8280    -6.0740     9.7810 ha         1 UNL       0.187000
     45 H16          7.0180    -3.7060     5.5480 ha         1 UNL       0.157000
     46 H17          7.0610    -7.3130     7.7070 ha         1 UNL       0.157000
     47 H18          1.0740     1.1150    17.6490 h1         1 UNL       0.047033
     48 H19          0.1560     2.1710    18.6970 h1         1 UNL       0.047033
     49 H20          1.8700     1.9560    18.9580 h1         1 UNL       0.047033
     50 H21          1.6480     5.2030    17.2460 h1         1 UNL       0.047033
     51 H22          2.2200     4.4440    18.7120 h1         1 UNL       0.047033
     52 H23          0.5060     4.6580    18.4510 h1         1 UNL       0.047033
@<TRIPOS>BOND
     1     1    17 1   
     2     1    18 1   
     3     2    14 1   
     4     2    21 1   
     5     3    17 2   
     6     4    20 2   
     7     5    21 2   
     8     6    20 1   
     9     6    27 1   
    10     6    28 1   
    11     7    24 1   
    12     7    29 2   
    13     8    29 1   
    14     9    29 1   
    15    10    11 1   
    16    10    12 ar  
    17    10    13 ar  
    18    11    17 1   
    19    12    15 ar  
    20    13    16 ar  
    21    14    15 ar  
    22    14    16 ar  
    23    18    20 1   
    24    19    21 1   
    25    19    22 ar  
    26    19    23 ar  
    27    22    25 ar  
    28    23    26 ar  
    29    24    25 ar  
    30    24    26 ar  
    31     7    30 1   
    32     8    31 1   
    33     8    32 1   
    34     9    33 1   
    35     9    34 1   
    36    11    35 1   
    37    11    36 1   
    38    12    37 1   
    39    13    38 1   
    40    15    39 1   
    41    16    40 1   
    42    18    41 1   
    43    18    42 1   
    44    22    43 1   
    45    23    44 1   
    46    25    45 1   
    47    26    46 1   
    48    27    47 1   
    49    27    48 1   
    50    27    49 1   
    51    28    50 1   
    52    28    51 1   
    53    28    52 1   
@<TRIPOS>SUBSTRUCTURE
     1 UNL         1 TEMP              0 ****  ****    0 ROOT
