@<TRIPOS>MOLECULE
*****
   65    68     1     0     0
SMALL
bcc


@<TRIPOS>ATOM
      1 C1           0.0590   -10.5940    12.6280 ca         1 UNL      -0.120000
      2 C2           1.3970   -10.1870    12.5820 ca         1 UNL      -0.104000
      3 C3           1.6800    -8.8240    12.3840 ca         1 UNL       0.093400
      4 C4           0.6300    -7.9270    12.2110 ca         1 UNL      -0.084200
      5 C5          -0.7120    -8.2990    12.2280 ca         1 UNL       0.013000
      6 C6          -0.9640    -9.6570    12.4560 ca         1 UNL      -0.280900
      7 C7          -2.3680   -10.1030    12.5420 ce         1 UNL       0.468400
      8 N8          -2.8260   -10.5500    13.6720 nh         1 UNL      -0.457600
      9 N9          -3.1250   -10.0160    11.3890 nh         1 UNL      -0.441700
     10 N10          1.2410    -6.7120    12.0480 na         1 UNL      -0.218300
     11 C11          2.5990    -6.8990    12.1430 cc         1 UNL       0.492400
     12 N12          2.8890    -8.1710    12.3350 nd         1 UNL      -0.573100
     13 C13          3.5500    -5.8080    12.0160 ca         1 UNL      -0.149900
     14 C14          3.6710    -4.8950    13.0680 ca         1 UNL      -0.065000
     15 C15          4.5680    -3.8250    12.9810 ca         1 UNL      -0.102300
     16 C16          5.3090    -3.6520    11.8010 ca         1 UNL      -0.059000
     17 C17          5.2290    -4.5640    10.7290 cp         1 UNL      -0.146000
     18 C18          4.3470    -5.6500    10.8720 ca         1 UNL       0.189100
     19 O19          4.2500    -6.5820     9.8700 oh         1 UNL      -0.481100
     20 C20          6.1010    -4.3830     9.5470 cp         1 UNL      -0.069000
     21 C21          5.6710    -3.5590     8.4910 ca         1 UNL       0.024000
     22 C22          6.4450    -3.4010     7.3340 ca         1 UNL      -0.430500
     23 C23          7.6880    -4.0110     7.2160 ca         1 UNL       0.016000
     24 C24          8.1430    -4.8160     8.2590 ca         1 UNL      -0.245000
     25 C25          7.3480    -5.0120     9.3940 ca         1 UNL       0.182100
     26 O26          7.8460    -5.8270    10.3760 oh         1 UNL      -0.479100
     27 S27          5.7440    -2.4350     6.0340 sy         1 UNL       1.533200
     28 O28          6.2360    -1.0830     6.2260 o          1 UNL      -0.664300
     29 O29          5.9980    -3.1620     4.8060 o          1 UNL      -0.664300
     30 N30          4.0660    -2.4480     6.3470 n3         1 UNL      -1.025700
     31 C31          4.7370    -2.8830    14.1460 c3         1 UNL      -0.113100
     32 C32          3.9620    -1.5850    13.9920 c          1 UNL       0.641100
     33 O33          4.3950    -0.5800    13.4360 o          1 UNL      -0.630100
     34 N34          2.6930    -1.6820    14.5340 n          1 UNL      -0.505900
     35 C35          2.3480    -1.0680    15.8100 c3         1 UNL       0.006700
     36 C36          0.8980    -0.5680    15.8510 c3         1 UNL      -0.163400
     37 C37          0.5120     0.0340    17.1830 c          1 UNL       0.904600
     38 O38          0.8460     1.1330    17.6010 o          1 UNL      -0.874300
     39 O39         -0.2050    -0.8600    17.9130 o          1 UNL      -0.874300
     40 C40          2.5850    -2.1370    16.8600 c          1 UNL       0.884600
     41 O41          3.2970    -1.9820    17.8440 o          1 UNL      -0.868300
     42 O42          1.8930    -3.2810    16.6170 o          1 UNL      -0.868300
     43 H1          -0.1720   -11.5860    12.7880 ha         1 UNL       0.120000
     44 H2           2.1610   -10.8730    12.6910 ha         1 UNL       0.137000
     45 H3          -1.4730    -7.6170    12.0820 ha         1 UNL       0.203000
     46 H4          -2.2380   -10.5890    14.4600 hn         1 UNL       0.333700
     47 H5          -3.7610   -10.8510    13.7400 hn         1 UNL       0.333700
     48 H6          -3.4160   -10.8360    10.9270 hn         1 UNL       0.333700
     49 H7          -3.3740    -9.1340    11.0290 hn         1 UNL       0.333700
     50 H8           0.7860    -5.8530    11.8900 hn         1 UNL       0.354700
     51 H9           3.0940    -5.0110    13.9150 ha         1 UNL       0.209000
     52 H10          5.9310    -2.8330    11.7170 ha         1 UNL       0.137000
     53 H11          4.9810    -7.1350     9.6720 ho         1 UNL       0.417000
     54 H12          4.7700    -3.0620     8.5700 ha         1 UNL       0.155000
     55 H13          8.2640    -3.8700     6.3720 ha         1 UNL       0.159000
     56 H14          9.0690    -5.2680     8.1940 ha         1 UNL       0.140000
     57 H15          8.0810    -6.7120    10.1770 ho         1 UNL       0.429000
     58 H16          3.8460    -1.7410     7.0490 hn         1 UNL       0.446300
     59 H17          3.7920    -3.3670     6.6920 hn         1 UNL       0.446300
     60 H18          5.7770    -2.6470    14.2420 hc         1 UNL       0.065200
     61 H19          4.3520    -3.3790    15.0120 hc         1 UNL       0.065200
     62 H20          2.0010    -2.1800    14.0430 hn         1 UNL       0.330500
     63 H21          2.9480    -0.1990    15.9800 h1         1 UNL       0.073700
     64 H22          0.2480    -1.3940    15.6510 hc         1 UNL       0.046200
     65 H23          0.8080     0.2040    15.1160 hc         1 UNL       0.046200
@<TRIPOS>BOND
     1     1     2 ar  
     2     1     6 ar  
     3     2     3 ar  
     4     3     4 ar  
     5     3    12 1   
     6     4     5 ar  
     7     4    10 1   
     8     5     6 ar  
     9     6     7 1   
    10     7     8 2   
    11     7     9 1   
    12    10    11 1   
    13    11    12 2   
    14    11    13 1   
    15    13    14 ar  
    16    13    18 ar  
    17    14    15 ar  
    18    15    16 ar  
    19    15    31 1   
    20    16    17 ar  
    21    17    18 ar  
    22    17    20 1   
    23    18    19 1   
    24    20    21 ar  
    25    20    25 ar  
    26    21    22 ar  
    27    22    23 ar  
    28    22    27 1   
    29    23    24 ar  
    30    24    25 ar  
    31    25    26 1   
    32    27    28 2   
    33    27    29 2   
    34    27    30 1   
    35    31    32 1   
    36    32    33 2   
    37    32    34 1   
    38    34    35 1   
    39    35    36 1   
    40    35    40 1   
    41    36    37 1   
    42    37    38 1   
    43    37    39 1   
    44    40    41 1   
    45    40    42 1   
    46     1    43 1   
    47     2    44 1   
    48     5    45 1   
    49     8    46 1   
    50     8    47 1   
    51     9    48 1   
    52     9    49 1   
    53    10    50 1   
    54    14    51 1   
    55    16    52 1   
    56    19    53 1   
    57    21    54 1   
    58    23    55 1   
    59    24    56 1   
    60    26    57 1   
    61    30    58 1   
    62    30    59 1   
    63    31    60 1   
    64    31    61 1   
    65    34    62 1   
    66    35    63 1   
    67    36    64 1   
    68    36    65 1   
@<TRIPOS>SUBSTRUCTURE
     1 UNL         1 TEMP              0 ****  ****    0 ROOT
