@<TRIPOS>MOLECULE
2536
   52    53     1     0     0
SMALL
bcc


@<TRIPOS>ATOM
      1 O1           3.9640    -7.2860    13.3590 os         1 UNL      -0.428900
      2 O2           5.0070    -2.0330     9.5000 os         1 UNL      -0.328200
      3 O3           2.2190    -6.2320    14.4380 o          1 UNL      -0.580000
      4 O4           4.4780    -9.7020    11.7670 o          1 UNL      -0.713100
      5 O5           7.1840    -1.2820     9.1400 o          1 UNL      -0.424000
      6 N6           2.1690    -9.7850    12.0000 n          1 UNL      -0.436800
      7 N7           6.8460    -6.5830     5.5290 nh         1 UNL      -0.341200
      8 N8           5.0260    -5.8450     4.1310 nh         1 UNL      -0.477700
      9 N9           6.1390    -7.7780     3.6510 nh         1 UNL      -0.477700
     10 C10          4.5400    -4.2970    12.9470 ca         1 UNL      -0.103300
     11 C11          4.3700    -5.1200    14.1980 c3         1 UNL      -0.078100
     12 C12          3.4240    -3.7420    12.3210 ca         1 UNL      -0.100000
     13 C13          5.8130    -4.0920    12.4140 ca         1 UNL      -0.100000
     14 C14          4.8530    -2.7750    10.6300 ca         1 UNL       0.094100
     15 C15          3.5810    -2.9810    11.1630 ca         1 UNL      -0.133500
     16 C16          5.9690    -3.3310    11.2560 ca         1 UNL      -0.133500
     17 C17          3.3740    -6.2430    14.0350 c          1 UNL       0.657100
     18 C18          3.3940    -7.6240    12.1130 c3         1 UNL       0.064400
     19 C19          6.4330    -3.2650     8.0510 ca         1 UNL      -0.122600
     20 C20          3.3990    -9.1280    11.9420 c          1 UNL       0.658100
     21 C21          6.2870    -2.0890     8.9450 c          1 UNL       0.635700
     22 C22          5.7040    -3.3340     6.8640 ca         1 UNL      -0.071000
     23 C23          7.3000    -4.3020     8.3980 ca         1 UNL      -0.071000
     24 C24          6.7080    -5.4760     6.3710 ca         1 UNL      -0.043200
     25 C25          5.8420    -4.4390     6.0240 ca         1 UNL      -0.129500
     26 C26          7.4370    -5.4070     7.5580 ca         1 UNL      -0.129500
     27 C27          0.8750    -9.1440    12.2190 c3         1 UNL       0.064800
     28 C28          2.1240   -11.2350    11.8490 c3         1 UNL       0.064800
     29 C29          6.0370    -6.7040     4.5030 cz         1 UNL       0.509300
     30 H1           7.5380    -7.2610     5.7030 hn         1 UNL       0.316700
     31 H2           5.2250    -5.0690     3.5590 hn         1 UNL       0.334200
     32 H3           4.1050    -6.0070     4.4370 hn         1 UNL       0.334200
     33 H4           5.4810    -7.8980     2.9280 hn         1 UNL       0.334200
     34 H5           6.8700    -8.4280     3.7620 hn         1 UNL       0.334200
     35 H6           4.0330    -4.4780    14.9850 hc         1 UNL       0.103200
     36 H7           5.3180    -5.5620    14.4220 hc         1 UNL       0.103200
     37 H8           2.4820    -3.8930    12.7160 ha         1 UNL       0.146500
     38 H9           6.6380    -4.5040    12.8770 ha         1 UNL       0.146500
     39 H10          2.7550    -2.5690    10.7000 ha         1 UNL       0.159500
     40 H11          6.9110    -3.1800    10.8620 ha         1 UNL       0.159500
     41 H12          3.9650    -7.1750    11.3270 h1         1 UNL       0.100200
     42 H13          2.3870    -7.2650    12.0740 h1         1 UNL       0.100200
     43 H14          5.0630    -2.5670     6.6070 ha         1 UNL       0.168500
     44 H15          7.8390    -4.2510     9.2760 ha         1 UNL       0.168500
     45 H16          5.3020    -4.4900     5.1460 ha         1 UNL       0.158500
     46 H17          8.0780    -6.1740     7.8150 ha         1 UNL       0.158500
     47 H18          1.0130    -8.0870    12.3160 h1         1 UNL       0.058533
     48 H19          0.4330    -9.5300    13.1130 h1         1 UNL       0.058533
     49 H20          0.2320    -9.3440    11.3870 h1         1 UNL       0.058533
     50 H21          3.1140   -11.6080    11.6940 h1         1 UNL       0.058533
     51 H22          1.5120   -11.4870    11.0090 h1         1 UNL       0.058533
     52 H23          1.7120   -11.6720    12.7340 h1         1 UNL       0.058533
@<TRIPOS>BOND
     1     1    17 1   
     2     1    18 1   
     3     2    14 1   
     4     2    21 1   
     5     3    17 2   
     6     4    20 2   
     7     5    21 2   
     8     6    20 1   
     9     6    27 1   
    10     6    28 1   
    11     7    24 1   
    12     7    29 2   
    13     8    29 1   
    14     9    29 1   
    15    10    11 1   
    16    10    12 ar  
    17    10    13 ar  
    18    11    17 1   
    19    12    15 ar  
    20    13    16 ar  
    21    14    15 ar  
    22    14    16 ar  
    23    18    20 1   
    24    19    21 1   
    25    19    22 ar  
    26    19    23 ar  
    27    22    25 ar  
    28    23    26 ar  
    29    24    25 ar  
    30    24    26 ar  
    31     7    30 1   
    32     8    31 1   
    33     8    32 1   
    34     9    33 1   
    35     9    34 1   
    36    11    35 1   
    37    11    36 1   
    38    12    37 1   
    39    13    38 1   
    40    15    39 1   
    41    16    40 1   
    42    18    41 1   
    43    18    42 1   
    44    22    43 1   
    45    23    44 1   
    46    25    45 1   
    47    26    46 1   
    48    27    47 1   
    49    27    48 1   
    50    27    49 1   
    51    28    50 1   
    52    28    51 1   
    53    28    52 1   
@<TRIPOS>SUBSTRUCTURE
     1 UNL         1 TEMP              0 ****  ****    0 ROOT
