@<TRIPOS>MOLECULE
2536
   52    53     1     0     0
SMALL
bcc


@<TRIPOS>ATOM
      1 O1           1.8880    -0.3490    14.6380 os         1 UNL      -0.415900
      2 O2           7.0220    -2.0350     9.5140 os         1 UNL      -0.362200
      3 O3           4.1670    -0.4360    14.9880 o          1 UNL      -0.537000
      4 O4           0.7100     2.0570    15.0390 o          1 UNL      -0.596100
      5 O5           6.4760    -0.3480     8.0020 o          1 UNL      -0.487000
      6 N6           1.7010     2.2160    17.1330 n          1 UNL      -0.479800
      7 N7           5.2400    -5.7240     4.7110 nh         1 UNL      -0.328200
      8 N8           7.5210    -6.5000     4.6420 nh         1 UNL      -0.501700
      9 N9           5.9030    -7.5640     3.4340 nh         1 UNL      -0.501700
     10 C10          4.1270    -2.0700    12.4880 ca         1 UNL      -0.076300
     11 C11          3.0750    -2.0830    13.5680 c3         1 UNL      -0.081100
     12 C12          3.7500    -1.9510    11.1500 ca         1 UNL      -0.098000
     13 C13          5.4760    -2.1770    12.8270 ca         1 UNL      -0.098000
     14 C14          6.0720    -2.0460    10.4890 ca         1 UNL       0.090100
     15 C15          4.7230    -1.9390    10.1510 ca         1 UNL      -0.127000
     16 C16          6.4480    -2.1650    11.8270 ca         1 UNL      -0.127000
     17 C17          3.1470    -0.8780    14.4750 c          1 UNL       0.651100
     18 C18          1.5370     0.0330    15.9510 c3         1 UNL       0.066400
     19 C19          6.2300    -2.6280     7.3520 ca         1 UNL      -0.092600
     20 C20          1.2800     1.5250    15.9960 c          1 UNL       0.641100
     21 C21          6.5810    -1.5310     8.2880 c          1 UNL       0.640700
     22 C22          5.8630    -2.3340     6.0390 ca         1 UNL      -0.055500
     23 C23          6.2670    -3.9540     7.7860 ca         1 UNL      -0.055500
     24 C24          5.5700    -4.6910     5.5930 ca         1 UNL      -0.054200
     25 C25          5.5330    -3.3650     5.1600 ca         1 UNL      -0.142000
     26 C26          5.9370    -4.9850     6.9060 ca         1 UNL      -0.142000
     27 C27          2.3640     1.6190    18.2890 c3         1 UNL       0.079300
     28 C28          1.4680     3.6520    17.2250 c3         1 UNL       0.079300
     29 C29          6.1860    -6.5350     4.3010 cz         1 UNL       0.525300
     30 H1           4.3120    -5.8420     4.4030 hn         1 UNL       0.332700
     31 H2           8.1480    -5.9490     4.1190 hn         1 UNL       0.329450
     32 H3           7.8480    -7.0250     5.4070 hn         1 UNL       0.329450
     33 H4           5.2010    -7.4550     2.7530 hn         1 UNL       0.329450
     34 H5           6.4030    -8.4100     3.4950 hn         1 UNL       0.329450
     35 H6           3.2050    -2.9640    14.1600 hc         1 UNL       0.090200
     36 H7           2.1200    -2.0630    13.0850 hc         1 UNL       0.090200
     37 H8           2.7520    -1.8710    10.9000 ha         1 UNL       0.157500
     38 H9           5.7540    -2.2650    13.8170 ha         1 UNL       0.157500
     39 H10          4.4450    -1.8510     9.1610 ha         1 UNL       0.151000
     40 H11          7.4460    -2.2450    12.0780 ha         1 UNL       0.151000
     41 H12          2.3370    -0.2100    16.6190 h1         1 UNL       0.091200
     42 H13          0.6510    -0.4880    16.2470 h1         1 UNL       0.091200
     43 H14          5.8350    -1.3540     5.7180 ha         1 UNL       0.187500
     44 H15          6.5390    -4.1710     8.7570 ha         1 UNL       0.187500
     45 H16          5.2610    -3.1480     4.1880 ha         1 UNL       0.156500
     46 H17          5.9650    -5.9650     7.2270 ha         1 UNL       0.156500
     47 H18          2.4900     0.5690    18.1260 h1         1 UNL       0.044700
     48 H19          1.7670     1.7760    19.1630 h1         1 UNL       0.044700
     49 H20          3.3220     2.0760    18.4260 h1         1 UNL       0.044700
     50 H21          0.9800     3.9920    16.3360 h1         1 UNL       0.044700
     51 H22          2.4030     4.1590    17.3360 h1         1 UNL       0.044700
     52 H23          0.8480     3.8590    18.0730 h1         1 UNL       0.044700
@<TRIPOS>BOND
     1     1    17 1   
     2     1    18 1   
     3     2    14 1   
     4     2    21 1   
     5     3    17 2   
     6     4    20 2   
     7     5    21 2   
     8     6    20 1   
     9     6    27 1   
    10     6    28 1   
    11     7    24 1   
    12     7    29 2   
    13     8    29 1   
    14     9    29 1   
    15    10    11 1   
    16    10    12 ar  
    17    10    13 ar  
    18    11    17 1   
    19    12    15 ar  
    20    13    16 ar  
    21    14    15 ar  
    22    14    16 ar  
    23    18    20 1   
    24    19    21 1   
    25    19    22 ar  
    26    19    23 ar  
    27    22    25 ar  
    28    23    26 ar  
    29    24    25 ar  
    30    24    26 ar  
    31     7    30 1   
    32     8    31 1   
    33     8    32 1   
    34     9    33 1   
    35     9    34 1   
    36    11    35 1   
    37    11    36 1   
    38    12    37 1   
    39    13    38 1   
    40    15    39 1   
    41    16    40 1   
    42    18    41 1   
    43    18    42 1   
    44    22    43 1   
    45    23    44 1   
    46    25    45 1   
    47    26    46 1   
    48    27    47 1   
    49    27    48 1   
    50    27    49 1   
    51    28    50 1   
    52    28    51 1   
    53    28    52 1   
@<TRIPOS>SUBSTRUCTURE
     1 UNL         1 TEMP              0 ****  ****    0 ROOT
