@<TRIPOS>MOLECULE
64949
   45    46     1     0     0
SMALL
bcc


@<TRIPOS>ATOM
      1 O1           6.1080    -3.0340     8.2780 os         1 UNL      -0.315400
      2 O2           6.7700    -1.9660    11.4700 os         1 UNL      -0.315400
      3 N3           5.7750    -6.4070     2.8010 nh         1 UNL      -0.469850
      4 N4           6.6310     4.3630    10.2860 nh         1 UNL      -0.469850
      5 N5           6.5990    -7.9890     4.3110 nh         1 UNL      -0.453950
      6 N6           8.6210     3.7080     9.2510 nh         1 UNL      -0.453950
      7 C7           7.1060    -4.0010    10.2260 c3         1 UNL      -0.117400
      8 C8           5.8140    -3.5350     9.5750 c3         1 UNL       0.121900
      9 C9           7.7550    -2.9030    11.0550 c3         1 UNL       0.121900
     10 C10          6.1260    -3.9440     7.2530 ca         1 UNL       0.200100
     11 C11          6.9620    -0.6610    11.0970 ca         1 UNL       0.200100
     12 C12          5.6160    -3.5900     6.0100 ca         1 UNL      -0.180500
     13 C13          6.1980    -0.1210    10.0690 ca         1 UNL      -0.180500
     14 C14          6.6560    -5.2110     7.4680 ca         1 UNL      -0.180500
     15 C15          7.9170     0.1080    11.7520 ca         1 UNL      -0.180500
     16 C16          6.1660    -5.7890     5.1740 ca         1 UNL      -0.303900
     17 C17          7.3480     1.9860    10.3430 ca         1 UNL      -0.303900
     18 C18          5.6360    -4.5160     4.9670 ca         1 UNL      -0.039250
     19 C19          6.3920     1.2070     9.6900 ca         1 UNL      -0.039250
     20 C20          6.6750    -6.1370     6.4250 ca         1 UNL      -0.039250
     21 C21          8.1100     1.4370    11.3730 ca         1 UNL      -0.039250
     22 C22          6.1870    -6.7540     4.0860 ce         1 UNL       0.527400
     23 C23          7.5500     3.3710     9.9480 ce         1 UNL       0.527400
     24 H1           6.2560    -5.7080     2.3020 hn         1 UNL       0.327200
     25 H2           5.0020    -6.8610     2.3920 hn         1 UNL       0.327200
     26 H3           6.2540     4.9440     9.5870 hn         1 UNL       0.327200
     27 H4           6.3590     4.4820    11.2250 hn         1 UNL       0.327200
     28 H5           6.6140    -8.6440     3.5760 hn         1 UNL       0.327200
     29 H6           6.8910    -8.2550     5.2130 hn         1 UNL       0.327200
     30 H7           8.7600     4.6450     8.9830 hn         1 UNL       0.327200
     31 H8           9.2800     3.0210     9.0000 hn         1 UNL       0.327200
     32 H9           7.7890    -4.3040     9.4600 hc         1 UNL       0.080700
     33 H10          6.8720    -4.8140    10.8800 hc         1 UNL       0.080700
     34 H11          5.1340    -4.3570     9.4980 h1         1 UNL       0.072950
     35 H12          5.3670    -2.7650    10.1680 h1         1 UNL       0.072950
     36 H13          8.2190    -3.3360    11.9160 h1         1 UNL       0.072950
     37 H14          8.4910    -2.4010    10.4620 h1         1 UNL       0.072950
     38 H15          5.2250    -2.6470     5.8590 ha         1 UNL       0.174000
     39 H16          5.4920    -0.6990     9.5890 ha         1 UNL       0.174000
     40 H17          7.0320    -5.4660     8.3950 ha         1 UNL       0.174000
     41 H18          8.4790    -0.3010    12.5140 ha         1 UNL       0.174000
     42 H19          5.2590    -4.2580     4.0410 ha         1 UNL       0.153500
     43 H20          5.8280     1.6140     8.9280 ha         1 UNL       0.153500
     44 H21          7.0670    -7.0790     6.5790 ha         1 UNL       0.153500
     45 H22          8.8170     2.0130    11.8560 ha         1 UNL       0.153500
@<TRIPOS>BOND
     1     1     8 1   
     2     1    10 1   
     3     2     9 1   
     4     2    11 1   
     5     3    22 2   
     6     4    23 2   
     7     5    22 1   
     8     6    23 1   
     9     7     8 1   
    10     7     9 1   
    11    10    12 ar  
    12    10    14 ar  
    13    11    13 ar  
    14    11    15 ar  
    15    12    18 ar  
    16    13    19 ar  
    17    14    20 ar  
    18    15    21 ar  
    19    16    18 ar  
    20    16    20 ar  
    21    16    22 1   
    22    17    19 ar  
    23    17    21 ar  
    24    17    23 1   
    25     3    24 1   
    26     3    25 1   
    27     4    26 1   
    28     4    27 1   
    29     5    28 1   
    30     5    29 1   
    31     6    30 1   
    32     6    31 1   
    33     7    32 1   
    34     7    33 1   
    35     8    34 1   
    36     8    35 1   
    37     9    36 1   
    38     9    37 1   
    39    12    38 1   
    40    13    39 1   
    41    14    40 1   
    42    15    41 1   
    43    18    42 1   
    44    19    43 1   
    45    20    44 1   
    46    21    45 1   
@<TRIPOS>SUBSTRUCTURE
     1 UNL         1 TEMP              0 ****  ****    0 ROOT
