@<TRIPOS>MOLECULE
64949
   45    46     1     0     0
SMALL
bcc


@<TRIPOS>ATOM
      1 O1           6.8240    -2.7200     7.9480 os         1 UNL      -0.312400
      2 O2           6.8190     0.4230    10.7580 os         1 UNL      -0.312400
      3 N3           5.3500    -6.5750     3.0030 nh         1 UNL      -0.469850
      4 N4           9.3590     6.3250    11.2060 nh         1 UNL      -0.469850
      5 N5           6.7860    -7.9150     4.2680 nh         1 UNL      -0.453950
      6 N6          10.2550     5.5500     9.1910 nh         1 UNL      -0.453950
      7 C7           5.6730    -1.1310     9.3180 c3         1 UNL      -0.096400
      8 C8           5.8050    -2.5940     8.9310 c3         1 UNL       0.126900
      9 C9           7.0100    -0.5230     9.7150 c3         1 UNL       0.126900
     10 C10          6.6620    -3.7080     7.0120 ca         1 UNL       0.202100
     11 C11          7.4710     1.6220    10.6310 ca         1 UNL       0.202100
     12 C12          5.9190    -3.4530     5.8650 ca         1 UNL      -0.180000
     13 C13          7.2110     2.6450    11.5360 ca         1 UNL      -0.180000
     14 C14          7.2420    -4.9540     7.2200 ca         1 UNL      -0.180000
     15 C15          8.3860     1.8020     9.6000 ca         1 UNL      -0.180000
     16 C16          6.3350    -5.7110     5.1130 ca         1 UNL      -0.304400
     17 C17          8.7950     4.0530    10.3770 ca         1 UNL      -0.304400
     18 C18          5.7560    -4.4590     4.9120 ca         1 UNL      -0.039250
     19 C19          7.8750     3.8650    11.4080 ca         1 UNL      -0.039250
     20 C20          7.0780    -5.9590     6.2670 ca         1 UNL      -0.039250
     21 C21          9.0500     3.0220     9.4730 ca         1 UNL      -0.039250
     22 C22          6.1650    -6.7590     4.1190 ce         1 UNL       0.527400
     23 C23          9.4880     5.3250    10.2440 ce         1 UNL       0.527400
     24 H1           4.7210    -5.8190     2.9730 hn         1 UNL       0.327075
     25 H2           5.4040    -7.2010     2.2450 hn         1 UNL       0.327075
     26 H3           9.0630     7.2270    10.9420 hn         1 UNL       0.327075
     27 H4           9.5640     6.1310    12.1490 hn         1 UNL       0.327075
     28 H5           6.6720    -8.6260     3.5970 hn         1 UNL       0.327075
     29 H6           7.3640    -8.0660     5.0520 hn         1 UNL       0.327075
     30 H7          10.7250     6.4100     9.0990 hn         1 UNL       0.327075
     31 H8          10.3560     4.8570     8.4990 hn         1 UNL       0.327075
     32 H9           4.9990    -1.0510    10.1450 hc         1 UNL       0.090200
     33 H10          5.3070    -0.5960     8.4670 hc         1 UNL       0.090200
     34 H11          6.0650    -3.1720     9.7940 h1         1 UNL       0.058950
     35 H12          4.8760    -2.9510     8.5390 h1         1 UNL       0.058950
     36 H13          7.6650    -1.2980    10.0540 h1         1 UNL       0.058950
     37 H14          7.4400    -0.0320     8.8670 h1         1 UNL       0.058950
     38 H15          5.4920    -2.5260     5.7190 ha         1 UNL       0.174000
     39 H16          6.5300     2.5020    12.2980 ha         1 UNL       0.174000
     40 H17          7.7920    -5.1340     8.0750 ha         1 UNL       0.174000
     41 H18          8.5730     1.0380     8.9330 ha         1 UNL       0.174000
     42 H19          5.2060    -4.2750     4.0580 ha         1 UNL       0.153250
     43 H20          7.6860     4.6280    12.0770 ha         1 UNL       0.153250
     44 H21          7.5070    -6.8860     6.4150 ha         1 UNL       0.153250
     45 H22          9.7310     3.1620     8.7100 ha         1 UNL       0.153250
@<TRIPOS>BOND
     1     1     8 1   
     2     1    10 1   
     3     2     9 1   
     4     2    11 1   
     5     3    22 2   
     6     4    23 2   
     7     5    22 1   
     8     6    23 1   
     9     7     8 1   
    10     7     9 1   
    11    10    12 ar  
    12    10    14 ar  
    13    11    13 ar  
    14    11    15 ar  
    15    12    18 ar  
    16    13    19 ar  
    17    14    20 ar  
    18    15    21 ar  
    19    16    18 ar  
    20    16    20 ar  
    21    16    22 1   
    22    17    19 ar  
    23    17    21 ar  
    24    17    23 1   
    25     3    24 1   
    26     3    25 1   
    27     4    26 1   
    28     4    27 1   
    29     5    28 1   
    30     5    29 1   
    31     6    30 1   
    32     6    31 1   
    33     7    32 1   
    34     7    33 1   
    35     8    34 1   
    36     8    35 1   
    37     9    36 1   
    38     9    37 1   
    39    12    38 1   
    40    13    39 1   
    41    14    40 1   
    42    15    41 1   
    43    18    42 1   
    44    19    43 1   
    45    20    44 1   
    46    21    45 1   
@<TRIPOS>SUBSTRUCTURE
     1 UNL         1 TEMP              0 ****  ****    0 ROOT
