@<TRIPOS>MOLECULE
64949
   45    46     1     0     0
SMALL
bcc


@<TRIPOS>ATOM
      1 O1           6.8660    -2.4070     8.0650 os         1 UNL      -0.303900
      2 O2           6.0340     0.6220    11.6930 os         1 UNL      -0.303900
      3 N3           3.9710    -5.7200     3.3610 nh         1 UNL      -0.470100
      4 N4           4.1480     6.6720    12.8470 nh         1 UNL      -0.470100
      5 N5           6.1700    -6.5030     3.2400 nh         1 UNL      -0.454200
      6 N6           2.5540     5.4230    14.0130 nh         1 UNL      -0.454200
      7 C7           6.4540    -0.9490     9.9170 c3         1 UNL      -0.098400
      8 C8           5.8290    -1.8130     8.8340 c3         1 UNL       0.129400
      9 C9           5.4220    -0.0810    10.6200 c3         1 UNL       0.129400
     10 C10          6.4800    -3.2140     7.0260 ca         1 UNL       0.202100
     11 C11          5.4470     1.8010    12.0740 ca         1 UNL       0.202100
     12 C12          6.8240    -4.5610     7.0390 ca         1 UNL      -0.180000
     13 C13          5.4930     2.8980    11.2220 ca         1 UNL      -0.180000
     14 C14          5.7500    -2.6780     5.9720 ca         1 UNL      -0.180000
     15 C15          4.8100     1.8860    13.3070 ca         1 UNL      -0.180000
     16 C16          5.6970    -4.8530     4.9220 ca         1 UNL      -0.303900
     17 C17          4.2550     4.1910    12.8440 ca         1 UNL      -0.303900
     18 C18          6.4310    -5.3830     5.9830 ca         1 UNL      -0.039000
     19 C19          4.8960     4.0980    11.6090 ca         1 UNL      -0.039000
     20 C20          5.3570    -3.5000     4.9160 ca         1 UNL      -0.039000
     21 C21          4.2120     3.0850    13.6930 ca         1 UNL      -0.039000
     22 C22          5.2870    -5.7100     3.8210 ce         1 UNL       0.527400
     23 C23          3.6310     5.4410    13.2480 ce         1 UNL       0.527400
     24 H1           3.7130    -5.1560     2.5970 hn         1 UNL       0.327200
     25 H2           3.3000    -6.2910     3.8000 hn         1 UNL       0.327200
     26 H3           3.5910     7.2940    12.3250 hn         1 UNL       0.327200
     27 H4           5.0710     6.9200    13.0860 hn         1 UNL       0.327200
     28 H5           5.8940    -7.0840     2.4940 hn         1 UNL       0.327200
     29 H6           7.1030    -6.5130     3.5520 hn         1 UNL       0.327200
     30 H7           2.1300     6.2680    14.2870 hn         1 UNL       0.327200
     31 H8           2.1750     4.5640    14.3080 hn         1 UNL       0.327200
     32 H9           7.1920    -0.3140     9.4700 hc         1 UNL       0.089700
     33 H10          6.8920    -1.5980    10.6460 hc         1 UNL       0.089700
     34 H11          5.2330    -2.5780     9.2850 h1         1 UNL       0.053700
     35 H12          5.2080    -1.2110     8.2030 h1         1 UNL       0.053700
     36 H13          5.0130     0.6200     9.9230 h1         1 UNL       0.053700
     37 H14          4.6420    -0.7040    11.0050 h1         1 UNL       0.053700
     38 H15          7.3660    -4.9510     7.8250 ha         1 UNL       0.174000
     39 H16          5.9680     2.8260    10.3090 ha         1 UNL       0.174000
     40 H17          5.4990    -1.6770     5.9710 ha         1 UNL       0.174000
     41 H18          4.7810     1.0660    13.9330 ha         1 UNL       0.174000
     42 H19          6.6830    -6.3840     5.9870 ha         1 UNL       0.153500
     43 H20          4.9270     4.9160    10.9810 ha         1 UNL       0.153500
     44 H21          4.8140    -3.1080     4.1310 ha         1 UNL       0.153500
     45 H22          3.7380     3.1540    14.6080 ha         1 UNL       0.153500
@<TRIPOS>BOND
     1     1     8 1   
     2     1    10 1   
     3     2     9 1   
     4     2    11 1   
     5     3    22 2   
     6     4    23 2   
     7     5    22 1   
     8     6    23 1   
     9     7     8 1   
    10     7     9 1   
    11    10    12 ar  
    12    10    14 ar  
    13    11    13 ar  
    14    11    15 ar  
    15    12    18 ar  
    16    13    19 ar  
    17    14    20 ar  
    18    15    21 ar  
    19    16    18 ar  
    20    16    20 ar  
    21    16    22 1   
    22    17    19 ar  
    23    17    21 ar  
    24    17    23 1   
    25     3    24 1   
    26     3    25 1   
    27     4    26 1   
    28     4    27 1   
    29     5    28 1   
    30     5    29 1   
    31     6    30 1   
    32     6    31 1   
    33     7    32 1   
    34     7    33 1   
    35     8    34 1   
    36     8    35 1   
    37     9    36 1   
    38     9    37 1   
    39    12    38 1   
    40    13    39 1   
    41    14    40 1   
    42    15    41 1   
    43    18    42 1   
    44    19    43 1   
    45    20    44 1   
    46    21    45 1   
@<TRIPOS>SUBSTRUCTURE
     1 UNL         1 TEMP              0 ****  ****    0 ROOT
