@<TRIPOS>MOLECULE
216210
   60    63     1     0     0
SMALL
bcc


@<TRIPOS>ATOM
      1 O1           4.2190    -2.7960     7.3860 o          1 UNL      -0.594100
      2 O2           7.8400    -7.6630    10.2440 o          1 UNL      -0.878300
      3 O3           9.1250    -5.7980    10.0760 o          1 UNL      -0.878300
      4 N4           7.5420     1.2590    10.7620 na         1 UNL      -0.165300
      5 N5           7.1770     1.6210     8.6000 nc         1 UNL      -0.555100
      6 N6           6.2130    -4.0630     7.4180 n          1 UNL      -0.460300
      7 N7           9.2460     3.8740     9.0900 nh         1 UNL      -0.344100
      8 N8           4.9870    -4.3670     5.3660 nb         1 UNL      -0.690000
      9 N9          14.7440     0.6740    10.1980 nh         1 UNL      -0.787600
     10 N10         14.8330     1.0300     7.8900 nh         1 UNL      -0.787600
     11 C11          7.0170     0.1260    10.1840 ca         1 UNL      -0.050200
     12 C12          7.6240     2.1340     9.7850 cd         1 UNL       0.362800
     13 C13          6.7790     0.3280     8.8270 ca         1 UNL       0.061400
     14 C14          8.1450     3.5040     9.9710 c3         1 UNL      -0.001000
     15 C15          5.9510    -1.8880     8.5720 ca         1 UNL      -0.148600
     16 C16          6.2480    -0.6520     7.9880 ca         1 UNL      -0.026000
     17 C17          6.7120    -1.1210    10.7550 ca         1 UNL      -0.142000
     18 C18          6.1780    -2.1200     9.9310 ca         1 UNL      -0.066000
     19 C19          7.9150     1.4210    12.1470 c3         1 UNL       0.031600
     20 C20          5.3940    -2.9500     7.7480 c          1 UNL       0.681700
     21 C21          7.2710    -4.5110     8.3370 c3         1 UNL       0.097000
     22 C22         10.4550     3.2140     9.0750 cc         1 UNL       0.161700
     23 C23          7.0110    -5.9150     8.8690 c3         1 UNL      -0.175400
     24 C24          6.0030    -4.7630     6.1650 ca         1 UNL       0.520200
     25 C25         10.7840     2.3370    10.1080 cc         1 UNL      -0.186500
     26 C26         11.3510     3.4240     8.0260 cc         1 UNL      -0.186500
     27 C27          6.8660    -5.8050     5.8630 ca         1 UNL      -0.223300
     28 C28         12.0090     1.6690    10.0930 cd         1 UNL      -0.037500
     29 C29         12.5760     2.7560     8.0110 cd         1 UNL      -0.037500
     30 C30         12.9050     1.8790     9.0450 cd         1 UNL      -0.181000
     31 C31          8.1130    -6.4160     9.7770 c          1 UNL       0.906600
     32 C32          6.6730    -6.4830     4.6650 ca         1 UNL      -0.087000
     33 C33          4.8310    -5.0500     4.2100 ca         1 UNL       0.408200
     34 C34          5.6390    -6.1040     3.8170 ca         1 UNL      -0.262300
     35 C35         14.1820     1.1840     9.0290 c2         1 UNL       0.551000
     36 H1           9.1190     4.6330     8.4760 hn         1 UNL       0.251700
     37 H2          15.4450    -0.0150    10.1470 hn         1 UNL       0.462800
     38 H3          14.4400     1.0030    11.0750 hn         1 UNL       0.462800
     39 H4          15.6980     0.5600     7.8770 hn         1 UNL       0.462800
     40 H5          14.4540     1.3860     7.0540 hn         1 UNL       0.462800
     41 H6           7.3400     4.1890     9.8020 h1         1 UNL       0.073700
     42 H7           8.5350     3.5410    10.9670 h1         1 UNL       0.073700
     43 H8           6.0830    -0.4740     6.9850 ha         1 UNL       0.160000
     44 H9           6.8780    -1.2970    11.7580 ha         1 UNL       0.139000
     45 H10          5.9480    -3.0420    10.3340 ha         1 UNL       0.152000
     46 H11          7.7190     0.5130    12.6780 h1         1 UNL       0.053033
     47 H12          7.3440     2.2170    12.5790 h1         1 UNL       0.053033
     48 H13          8.9570     1.6550    12.2110 h1         1 UNL       0.053033
     49 H14          7.3210    -3.8330     9.1630 h1         1 UNL       0.064200
     50 H15          8.1930    -4.5300     7.7940 h1         1 UNL       0.064200
     51 H16          6.9230    -6.5840     8.0380 hc         1 UNL       0.062200
     52 H17          6.1110    -5.8770     9.4470 hc         1 UNL       0.062200
     53 H18         10.1210     2.1810    10.8840 ha         1 UNL       0.142500
     54 H19         11.1070     4.0720     7.2620 ha         1 UNL       0.142500
     55 H20          7.6270    -6.0690     6.5080 ha         1 UNL       0.162000
     56 H21         12.2520     1.0200    10.8580 ha         1 UNL       0.156000
     57 H22         13.2380     2.9120     7.2360 ha         1 UNL       0.156000
     58 H23          7.2960    -7.2650     4.4060 ha         1 UNL       0.137000
     59 H24          4.0630    -4.7680     3.5810 h4         1 UNL       0.019100
     60 H25          5.4780    -6.5940     2.9220 ha         1 UNL       0.141000
@<TRIPOS>BOND
     1     1    20 2   
     2     2    31 1   
     3     3    31 1   
     4     4    11 1   
     5     4    12 1   
     6     4    19 1   
     7     5    12 2   
     8     5    13 1   
     9     6    20 1   
    10     6    21 1   
    11     6    24 1   
    12     7    14 1   
    13     7    22 2   
    14     8    24 ar  
    15     8    33 ar  
    16     9    35 1   
    17    10    35 1   
    18    11    13 ar  
    19    11    17 ar  
    20    12    14 1   
    21    13    16 ar  
    22    15    16 ar  
    23    15    18 ar  
    24    15    20 1   
    25    17    18 ar  
    26    21    23 1   
    27    22    25 1   
    28    22    26 1   
    29    23    31 1   
    30    24    27 ar  
    31    25    28 2   
    32    26    29 2   
    33    27    32 ar  
    34    28    30 1   
    35    29    30 1   
    36    30    35 2   
    37    32    34 ar  
    38    33    34 ar  
    39     7    36 1   
    40     9    37 1   
    41     9    38 1   
    42    10    39 1   
    43    10    40 1   
    44    14    41 1   
    45    14    42 1   
    46    16    43 1   
    47    17    44 1   
    48    18    45 1   
    49    19    46 1   
    50    19    47 1   
    51    19    48 1   
    52    21    49 1   
    53    21    50 1   
    54    23    51 1   
    55    23    52 1   
    56    25    53 1   
    57    26    54 1   
    58    27    55 1   
    59    28    56 1   
    60    29    57 1   
    61    32    58 1   
    62    33    59 1   
    63    34    60 1   
@<TRIPOS>SUBSTRUCTURE
     1 UNL         1 TEMP              0 ****  ****    0 ROOT
