@<TRIPOS>MOLECULE
216210
   60    63     1     0     0
SMALL
bcc


@<TRIPOS>ATOM
      1 O1           8.0550     4.2370    12.9870 o          1 UNL      -0.570100
      2 O2           3.5430     1.3950    13.6320 o          1 UNL      -0.863800
      3 O3           5.1650     1.8880    15.1430 o          1 UNL      -0.863800
      4 N4           6.4330     0.2100     8.4810 na         1 UNL      -0.147300
      5 N5           5.5970    -0.2620    10.4850 nc         1 UNL      -0.523100
      6 N6           5.7680     4.8160    12.8760 n          1 UNL      -0.479300
      7 N7           5.2190    -2.0610     7.2240 nh         1 UNL      -0.340100
      8 N8           7.1360     6.6720    13.5760 nb         1 UNL      -0.671000
      9 N9           6.7900    -7.7940     4.7010 nh         1 UNL      -0.855100
     10 N10          5.4400    -6.8700     3.0320 nh         1 UNL      -0.855100
     11 C11          6.6430     1.2700     9.3330 ca         1 UNL      -0.034200
     12 C12          5.8040    -0.6890     9.2040 cd         1 UNL       0.367800
     13 C13          6.1270     0.9980    10.5970 ca         1 UNL       0.067400
     14 C14          5.3820    -2.0020     8.6720 c3         1 UNL       0.024000
     15 C15          6.8260     3.1210    11.4130 ca         1 UNL      -0.153600
     16 C16          6.1990     1.8950    11.6630 ca         1 UNL      -0.019000
     17 C17          7.2690     2.5060     9.1000 ca         1 UNL      -0.139000
     18 C18          7.3520     3.4220    10.1550 ca         1 UNL      -0.075000
     19 C19          6.8300     0.1300     7.0960 c3         1 UNL       0.027600
     20 C20          6.9310     4.0990    12.4860 c          1 UNL       0.692700
     21 C21          4.4350     4.2050    12.7530 c3         1 UNL       0.099000
     22 C22          5.4110    -3.2100     6.4890 cc         1 UNL       0.261700
     23 C23          3.9130     3.6950    14.0900 c3         1 UNL      -0.192400
     24 C24          5.8960     6.1630    13.4010 ca         1 UNL       0.534200
     25 C25          6.5340    -4.0060     6.7180 cc         1 UNL      -0.231500
     26 C26          4.4830    -3.5780     5.5150 cc         1 UNL      -0.231500
     27 C27          4.7280     6.8480    13.6930 ca         1 UNL      -0.249300
     28 C28          6.7290    -5.1680     5.9730 cd         1 UNL      -0.021000
     29 C29          4.6780    -4.7410     4.7690 cd         1 UNL      -0.021000
     30 C30          5.8010    -5.5360     4.9980 cd         1 UNL      -0.298000
     31 C31          4.2970     2.2570    14.3640 c          1 UNL       0.916600
     32 C32          4.8390     8.1390    14.1980 ca         1 UNL      -0.087000
     33 C33          7.2050     7.9290    14.0680 ca         1 UNL       0.410200
     34 C34          6.0980     8.6970    14.3910 ca         1 UNL      -0.269300
     35 C35          6.0040    -6.7480     4.2210 c2         1 UNL       0.516000
     36 H1           4.9590    -1.2390     6.7490 hn         1 UNL       0.386700
     37 H2           6.9090    -7.9150     5.6710 hn         1 UNL       0.461050
     38 H3           7.2260    -8.4120     4.0710 hn         1 UNL       0.461050
     39 H4           5.5760    -7.6900     2.5050 hn         1 UNL       0.461050
     40 H5           4.8840    -6.1410     2.6740 hn         1 UNL       0.461050
     41 H6           6.1200    -2.7250     8.9510 h1         1 UNL       0.065700
     42 H7           4.4150    -2.1940     9.0880 h1         1 UNL       0.065700
     43 H8           5.8080     1.6670    12.5900 ha         1 UNL       0.158000
     44 H9           7.6590     2.7330     8.1720 ha         1 UNL       0.135000
     45 H10          7.8090     4.3350    10.0010 ha         1 UNL       0.147000
     46 H11          7.3240     1.0370     6.8140 h1         1 UNL       0.051700
     47 H12          5.9640    -0.0090     6.4830 h1         1 UNL       0.051700
     48 H13          7.4970    -0.6960     6.9630 h1         1 UNL       0.051700
     49 H14          4.4940     3.3830    12.0690 h1         1 UNL       0.067700
     50 H15          3.7590     4.9550    12.4000 h1         1 UNL       0.067700
     51 H16          2.8460     3.7690    14.0900 hc         1 UNL       0.046700
     52 H17          4.3550     4.2960    14.8560 hc         1 UNL       0.046700
     53 H18          7.2210    -3.7330     7.4380 ha         1 UNL       0.196000
     54 H19          3.6520    -2.9900     5.3450 ha         1 UNL       0.196000
     55 H20          3.8040     6.4140    13.5420 ha         1 UNL       0.157000
     56 H21          7.5600    -5.7570     6.1420 ha         1 UNL       0.124500
     57 H22          3.9910    -5.0130     4.0490 ha         1 UNL       0.124500
     58 H23          3.9910     8.6800    14.4270 ha         1 UNL       0.134000
     59 H24          8.1400     8.3430    14.2110 h4         1 UNL       0.018100
     60 H25          6.2040     9.6540    14.7640 ha         1 UNL       0.138000
@<TRIPOS>BOND
     1     1    20 2   
     2     2    31 1   
     3     3    31 1   
     4     4    11 1   
     5     4    12 1   
     6     4    19 1   
     7     5    12 2   
     8     5    13 1   
     9     6    20 1   
    10     6    21 1   
    11     6    24 1   
    12     7    14 1   
    13     7    22 2   
    14     8    24 ar  
    15     8    33 ar  
    16     9    35 1   
    17    10    35 1   
    18    11    13 ar  
    19    11    17 ar  
    20    12    14 1   
    21    13    16 ar  
    22    15    16 ar  
    23    15    18 ar  
    24    15    20 1   
    25    17    18 ar  
    26    21    23 1   
    27    22    25 1   
    28    22    26 1   
    29    23    31 1   
    30    24    27 ar  
    31    25    28 2   
    32    26    29 2   
    33    27    32 ar  
    34    28    30 1   
    35    29    30 1   
    36    30    35 2   
    37    32    34 ar  
    38    33    34 ar  
    39     7    36 1   
    40     9    37 1   
    41     9    38 1   
    42    10    39 1   
    43    10    40 1   
    44    14    41 1   
    45    14    42 1   
    46    16    43 1   
    47    17    44 1   
    48    18    45 1   
    49    19    46 1   
    50    19    47 1   
    51    19    48 1   
    52    21    49 1   
    53    21    50 1   
    54    23    51 1   
    55    23    52 1   
    56    25    53 1   
    57    26    54 1   
    58    27    55 1   
    59    28    56 1   
    60    29    57 1   
    61    32    58 1   
    62    33    59 1   
    63    34    60 1   
@<TRIPOS>SUBSTRUCTURE
     1 UNL         1 TEMP              0 ****  ****    0 ROOT
