@<TRIPOS>MOLECULE
216210
   60    63     1     0     0
SMALL
bcc


@<TRIPOS>ATOM
      1 O1           1.6190    -6.4190    14.2060 o          1 UNL      -0.575100
      2 O2           6.7420    -7.1280    11.9310 o          1 UNL      -0.878800
      3 O3           7.0610    -9.2560    11.2060 o          1 UNL      -0.878800
      4 N4           5.4250    -2.9120    10.7220 na         1 UNL      -0.167300
      5 N5           3.4770    -3.5840     9.8880 nc         1 UNL      -0.542100
      6 N6           2.9940    -8.1880    13.4590 n          1 UNL      -0.470300
      7 N7           5.9110    -2.1100     7.7680 nh         1 UNL      -0.336100
      8 N8           1.0700    -9.3260    12.5610 nb         1 UNL      -0.664000
      9 N9           5.4310    -6.4470     3.0070 nh         1 UNL      -0.786100
     10 N10          6.7690    -7.5640     4.5630 nh         1 UNL      -0.786100
     11 C11          4.8740    -3.8690    11.5420 ca         1 UNL      -0.056200
     12 C12          4.5620    -2.7650     9.7410 cd         1 UNL       0.351800
     13 C13          3.6510    -4.3060    11.0410 ca         1 UNL       0.057400
     14 C14          4.7650    -1.8220     8.6220 c3         1 UNL      -0.018000
     15 C15          3.3660    -5.8140    12.8590 ca         1 UNL      -0.145600
     16 C16          2.8670    -5.2760    11.6680 ca         1 UNL      -0.022000
     17 C17          5.3590    -4.4200    12.7400 ca         1 UNL      -0.143000
     18 C18          4.5890    -5.3950    13.3880 ca         1 UNL      -0.070000
     19 C19          6.6830    -2.2340    10.9190 c3         1 UNL       0.031600
     20 C20          2.5940    -6.8280    13.5610 c          1 UNL       0.680700
     21 C21          4.4110    -8.5380    13.2720 c3         1 UNL       0.095000
     22 C22          5.9560    -3.1810     6.9010 cc         1 UNL       0.110700
     23 C23          4.8180    -8.5130    11.8040 c3         1 UNL      -0.190400
     24 C24          1.9980    -9.2390    13.5400 ca         1 UNL       0.520200
     25 C25          5.7240    -2.9860     5.5400 cc         1 UNL      -0.151000
     26 C26          6.2330    -4.4590     7.3860 cc         1 UNL      -0.151000
     27 C27          2.0600   -10.0960    14.6280 ca         1 UNL      -0.232300
     28 C28          5.7690    -4.0700     4.6630 cd         1 UNL      -0.055000
     29 C29          6.2780    -5.5430     6.5090 cd         1 UNL      -0.055000
     30 C30          6.0460    -5.3480     5.1470 cd         1 UNL      -0.153000
     31 C31          6.3130    -8.3760    11.6080 c          1 UNL       0.907600
     32 C32          1.1100   -11.1070    14.7150 ca         1 UNL      -0.091000
     33 C33          0.1620   -10.3210    12.6800 ca         1 UNL       0.409200
     34 C34          0.1390   -11.2280    13.7270 ca         1 UNL      -0.254300
     35 C35          6.0930    -6.4780     4.2330 c2         1 UNL       0.546000
     36 H1           6.6900    -1.5110     7.8130 hn         1 UNL       0.219700
     37 H2           4.4480    -6.4030     2.9790 hn         1 UNL       0.464800
     38 H3           5.9470    -6.4680     2.1690 hn         1 UNL       0.464800
     39 H4           6.8020    -8.3300     3.9460 hn         1 UNL       0.464800
     40 H5           7.2400    -7.6070     5.4270 hn         1 UNL       0.464800
     41 H6           3.8860    -1.8380     8.0130 h1         1 UNL       0.082200
     42 H7           4.9590    -0.8690     9.0690 h1         1 UNL       0.082200
     43 H8           1.9640    -5.5810    11.2730 ha         1 UNL       0.162000
     44 H9           6.2620    -4.1140    13.1340 ha         1 UNL       0.138000
     45 H10          4.9310    -5.8100    14.2680 ha         1 UNL       0.149000
     46 H11          7.1420    -2.5870    11.8190 h1         1 UNL       0.051700
     47 H12          6.5130    -1.1810    10.9960 h1         1 UNL       0.051700
     48 H13          7.3290    -2.4310    10.0890 h1         1 UNL       0.051700
     49 H14          4.5780    -9.5210    13.6590 h1         1 UNL       0.066700
     50 H15          5.0020    -7.8120    13.7900 h1         1 UNL       0.066700
     51 H16          4.3350    -7.6840    11.3310 hc         1 UNL       0.063200
     52 H17          4.5220    -9.4460    11.3740 hc         1 UNL       0.063200
     53 H18          5.5190    -2.0410     5.1810 ha         1 UNL       0.147000
     54 H19          6.4050    -4.6030     8.3930 ha         1 UNL       0.147000
     55 H20          2.7900    -9.9870    15.3500 ha         1 UNL       0.149000
     56 H21          5.5970    -3.9260     3.6560 ha         1 UNL       0.157000
     57 H22          6.4830    -6.4890     6.8680 ha         1 UNL       0.157000
     58 H23          1.1240   -11.7640    15.5110 ha         1 UNL       0.136000
     59 H24         -0.5580   -10.4100    11.9460 h4         1 UNL       0.021100
     60 H25         -0.5760   -11.9710    13.7720 ha         1 UNL       0.142000
@<TRIPOS>BOND
     1     1    20 2   
     2     2    31 1   
     3     3    31 1   
     4     4    11 1   
     5     4    12 1   
     6     4    19 1   
     7     5    12 2   
     8     5    13 1   
     9     6    20 1   
    10     6    21 1   
    11     6    24 1   
    12     7    14 1   
    13     7    22 2   
    14     8    24 ar  
    15     8    33 ar  
    16     9    35 1   
    17    10    35 1   
    18    11    13 ar  
    19    11    17 ar  
    20    12    14 1   
    21    13    16 ar  
    22    15    16 ar  
    23    15    18 ar  
    24    15    20 1   
    25    17    18 ar  
    26    21    23 1   
    27    22    25 1   
    28    22    26 1   
    29    23    31 1   
    30    24    27 ar  
    31    25    28 2   
    32    26    29 2   
    33    27    32 ar  
    34    28    30 1   
    35    29    30 1   
    36    30    35 2   
    37    32    34 ar  
    38    33    34 ar  
    39     7    36 1   
    40     9    37 1   
    41     9    38 1   
    42    10    39 1   
    43    10    40 1   
    44    14    41 1   
    45    14    42 1   
    46    16    43 1   
    47    17    44 1   
    48    18    45 1   
    49    19    46 1   
    50    19    47 1   
    51    19    48 1   
    52    21    49 1   
    53    21    50 1   
    54    23    51 1   
    55    23    52 1   
    56    25    53 1   
    57    26    54 1   
    58    27    55 1   
    59    28    56 1   
    60    29    57 1   
    61    32    58 1   
    62    33    59 1   
    63    34    60 1   
@<TRIPOS>SUBSTRUCTURE
     1 UNL         1 TEMP              0 ****  ****    0 ROOT
