@<TRIPOS>MOLECULE
216210
   60    63     1     0     0
SMALL
bcc


@<TRIPOS>ATOM
      1 O1           1.8850    -6.7940    14.0030 o          1 UNL      -0.569100
      2 O2           3.9930   -12.6630    11.4670 o          1 UNL      -0.863800
      3 O3           1.8840   -11.9480    11.0220 o          1 UNL      -0.863800
      4 N4           6.4470    -4.0790    10.7080 na         1 UNL      -0.161300
      5 N5           4.3590    -3.7230    10.0350 nc         1 UNL      -0.557100
      6 N6           2.0320    -8.4410    12.3170 n          1 UNL      -0.477300
      7 N7           5.5980    -2.2850     7.6920 nh         1 UNL      -0.347100
      8 N8          -0.2910    -8.2050    11.7200 nb         1 UNL      -0.666000
      9 N9           6.7440    -7.6990     4.3630 nh         1 UNL      -0.816100
     10 N10          5.5000    -6.4350     2.8420 nh         1 UNL      -0.816100
     11 C11          5.5940    -4.9380    11.3640 ca         1 UNL      -0.047200
     12 C12          5.6740    -3.3660     9.9200 cd         1 UNL       0.354800
     13 C13          4.2780    -4.7340    10.9580 ca         1 UNL       0.062400
     14 C14          6.1880    -2.3100     9.0240 c3         1 UNL       0.000000
     15 C15          3.4930    -6.4440    12.4130 ca         1 UNL      -0.142600
     16 C16          3.2000    -5.4650    11.4580 ca         1 UNL      -0.029000
     17 C17          5.8700    -5.9250    12.3250 ca         1 UNL      -0.136000
     18 C18          4.8030    -6.6720    12.8410 ca         1 UNL      -0.068000
     19 C19          7.8790    -4.0020    10.8700 c3         1 UNL       0.030600
     20 C20          2.4100    -7.2390    12.9730 c          1 UNL       0.689700
     21 C21          3.0230    -9.2270    11.5640 c3         1 UNL       0.102000
     22 C22          5.7090    -3.3270     6.7970 cc         1 UNL       0.173700
     23 C23          3.3990   -10.5150    12.2850 c3         1 UNL      -0.180400
     24 C24          0.6570    -8.8990    12.3900 ca         1 UNL       0.533200
     25 C25          6.6690    -4.3190     6.9970 cc         1 UNL      -0.187000
     26 C26          4.8620    -3.3900     5.6910 cc         1 UNL      -0.187000
     27 C27          0.3990   -10.0290    13.1500 ca         1 UNL      -0.252300
     28 C28          6.7820    -5.3730     6.0900 cd         1 UNL      -0.032500
     29 C29          4.9750    -4.4430     4.7840 cd         1 UNL      -0.032500
     30 C30          5.9350    -5.4350     4.9840 cd         1 UNL      -0.192000
     31 C31          2.9810   -11.7580    11.5290 c          1 UNL       0.904600
     32 C32         -0.9160   -10.4750    13.2270 ca         1 UNL      -0.084000
     33 C33         -1.5570    -8.6690    11.8180 ca         1 UNL       0.411200
     34 C34         -1.9180    -9.7880    12.5510 ca         1 UNL      -0.268300
     35 C35          6.0520    -6.5340     4.0380 c2         1 UNL       0.478000
     36 H1           5.0950    -1.4850     7.4180 hn         1 UNL       0.259700
     37 H2           7.1430    -7.8020     5.2580 hn         1 UNL       0.481050
     38 H3           6.8340    -8.4200     3.6990 hn         1 UNL       0.481050
     39 H4           5.5790    -7.1780     2.2010 hn         1 UNL       0.481050
     40 H5           5.0100    -5.6190     2.5920 hn         1 UNL       0.481050
     41 H6           6.0020    -1.3640     9.4870 h1         1 UNL       0.074700
     42 H7           7.2280    -2.5200     8.8850 h1         1 UNL       0.074700
     43 H8           2.2340    -5.2920    11.1380 ha         1 UNL       0.159000
     44 H9           6.8360    -6.0970    12.6430 ha         1 UNL       0.138000
     45 H10          4.9880    -7.4010    13.5470 ha         1 UNL       0.150000
     46 H11          8.1960    -4.7250    11.5920 h1         1 UNL       0.052033
     47 H12          8.1480    -3.0220    11.2050 h1         1 UNL       0.052033
     48 H13          8.3550    -4.2020     9.9330 h1         1 UNL       0.052033
     49 H14          3.9050    -8.6350    11.4330 h1         1 UNL       0.064700
     50 H15          2.5890    -9.4900    10.6230 h1         1 UNL       0.064700
     51 H16          2.9230   -10.5220    13.2430 hc         1 UNL       0.053700
     52 H17          4.4660   -10.5350    12.3690 hc         1 UNL       0.053700
     53 H18          7.2960    -4.2730     7.8150 ha         1 UNL       0.147000
     54 H19          4.1510    -2.6560     5.5430 ha         1 UNL       0.147000
     55 H20          1.1590   -10.5230    13.6430 ha         1 UNL       0.156000
     56 H21          7.4920    -6.1070     6.2380 ha         1 UNL       0.159000
     57 H22          4.3480    -4.4890     3.9650 ha         1 UNL       0.159000
     58 H23         -1.1470   -11.3130    13.7830 ha         1 UNL       0.136000
     59 H24         -2.3000    -8.1580    11.3170 h4         1 UNL       0.020100
     60 H25         -2.9000   -10.1010    12.5940 ha         1 UNL       0.140000
@<TRIPOS>BOND
     1     1    20 2   
     2     2    31 1   
     3     3    31 1   
     4     4    11 1   
     5     4    12 1   
     6     4    19 1   
     7     5    12 2   
     8     5    13 1   
     9     6    20 1   
    10     6    21 1   
    11     6    24 1   
    12     7    14 1   
    13     7    22 2   
    14     8    24 ar  
    15     8    33 ar  
    16     9    35 1   
    17    10    35 1   
    18    11    13 ar  
    19    11    17 ar  
    20    12    14 1   
    21    13    16 ar  
    22    15    16 ar  
    23    15    18 ar  
    24    15    20 1   
    25    17    18 ar  
    26    21    23 1   
    27    22    25 1   
    28    22    26 1   
    29    23    31 1   
    30    24    27 ar  
    31    25    28 2   
    32    26    29 2   
    33    27    32 ar  
    34    28    30 1   
    35    29    30 1   
    36    30    35 2   
    37    32    34 ar  
    38    33    34 ar  
    39     7    36 1   
    40     9    37 1   
    41     9    38 1   
    42    10    39 1   
    43    10    40 1   
    44    14    41 1   
    45    14    42 1   
    46    16    43 1   
    47    17    44 1   
    48    18    45 1   
    49    19    46 1   
    50    19    47 1   
    51    19    48 1   
    52    21    49 1   
    53    21    50 1   
    54    23    51 1   
    55    23    52 1   
    56    25    53 1   
    57    26    54 1   
    58    27    55 1   
    59    28    56 1   
    60    29    57 1   
    61    32    58 1   
    62    33    59 1   
    63    34    60 1   
@<TRIPOS>SUBSTRUCTURE
     1 UNL         1 TEMP              0 ****  ****    0 ROOT
