@<TRIPOS>MOLECULE
5284571
   39    40     1     0     0
SMALL
bcc


@<TRIPOS>ATOM
      1 O1           3.9620    -2.2170     5.8310 oh         1 UNL      -0.474100
      2 N2           7.1580    -7.1990     4.3670 nh         1 UNL      -0.798100
      3 N3           4.6780     3.9510    12.1510 nh         1 UNL      -0.800100
      4 N4           5.3140    -6.3060     3.2440 nh         1 UNL      -0.798100
      5 N5           6.7450     3.3010    13.0260 nh         1 UNL      -0.800100
      6 C6           5.7200    -3.1840     7.1510 cc         1 UNL      -0.081000
      7 C7           6.2000     0.0510     9.2210 cc         1 UNL       0.010000
      8 C8           4.9040    -3.1820     6.0310 cc         1 UNL       0.154100
      9 C9           5.5920    -2.1280     8.1710 cf         1 UNL      -0.105000
     10 C10          6.0000    -5.1920     5.2600 cd         1 UNL      -0.125000
     11 C11          6.6750    -4.1720     7.3430 cc         1 UNL      -0.068000
     12 C12          6.3390    -1.0010     8.2250 cf         1 UNL      -0.131000
     13 C13          5.0440    -4.1920     5.0800 cd         1 UNL      -0.116000
     14 C14          6.8150    -5.1820     6.3920 cd         1 UNL      -0.120000
     15 C15          6.2850     1.3890     8.8380 cc         1 UNL      -0.110000
     16 C16          5.9820    -0.2790    10.5580 cc         1 UNL      -0.110000
     17 C17          5.9340     2.0670    11.1300 cd         1 UNL      -0.166000
     18 C18          6.1520     2.3980     9.7920 cd         1 UNL      -0.076000
     19 C19          5.8490     0.7290    11.5130 cd         1 UNL      -0.076000
     20 C20          6.1470    -6.2450     4.2670 c2         1 UNL       0.503000
     21 C21          5.7960     3.1190    12.1250 c2         1 UNL       0.504000
     22 H1           3.2680    -2.1030     6.4510 ho         1 UNL       0.442000
     23 H2           7.5680    -7.5690     3.5520 hn         1 UNL       0.486050
     24 H3           7.4620    -7.5030     5.2530 hn         1 UNL       0.486050
     25 H4           4.7870     4.9170    12.3070 hn         1 UNL       0.485550
     26 H5           3.7800     3.5730    12.0130 hn         1 UNL       0.485550
     27 H6           5.4120    -7.0180     2.5710 hn         1 UNL       0.486050
     28 H7           4.5950    -5.6390     3.1540 hn         1 UNL       0.486050
     29 H8           6.6530     4.0120    13.7010 hn         1 UNL       0.485550
     30 H9           7.5440     2.7250    13.0230 hn         1 UNL       0.485550
     31 H10          4.8750    -2.2590     8.9030 ha         1 UNL       0.152000
     32 H11          7.2750    -4.1600     8.1820 ha         1 UNL       0.169000
     33 H12          7.0660    -0.8770     7.5020 ha         1 UNL       0.153000
     34 H13          4.4410    -4.2000     4.2420 ha         1 UNL       0.175000
     35 H14          7.5220    -5.9220     6.5250 ha         1 UNL       0.160000
     36 H15          6.4460     1.6340     7.8480 ha         1 UNL       0.165500
     37 H16          5.9190    -1.2700    10.8410 ha         1 UNL       0.165500
     38 H17          6.2150     3.3880     9.5090 ha         1 UNL       0.158000
     39 H18          5.6880     0.4840    12.5020 ha         1 UNL       0.158000
@<TRIPOS>BOND
     1     1     8 1   
     2     2    20 1   
     3     3    21 1   
     4     4    20 1   
     5     5    21 1   
     6     6     8 1   
     7     6     9 2   
     8     6    11 1   
     9     7    12 2   
    10     7    15 1   
    11     7    16 1   
    12     8    13 2   
    13     9    12 1   
    14    10    13 1   
    15    10    14 1   
    16    10    20 2   
    17    11    14 2   
    18    15    18 2   
    19    16    19 2   
    20    17    18 1   
    21    17    19 1   
    22    17    21 2   
    23     1    22 1   
    24     2    23 1   
    25     2    24 1   
    26     3    25 1   
    27     3    26 1   
    28     4    27 1   
    29     4    28 1   
    30     5    29 1   
    31     5    30 1   
    32     9    31 1   
    33    11    32 1   
    34    12    33 1   
    35    13    34 1   
    36    14    35 1   
    37    15    36 1   
    38    16    37 1   
    39    18    38 1   
    40    19    39 1   
@<TRIPOS>SUBSTRUCTURE
     1 UNL         1 TEMP              0 ****  ****    0 ROOT
