@<TRIPOS>MOLECULE
5284571
   39    40     1     0     0
SMALL
bcc


@<TRIPOS>ATOM
      1 O1           6.3800    -5.3540     8.7500 oh         1 UNL      -0.473100
      2 N2           5.7960    -6.5140     2.8020 nh         1 UNL      -0.798600
      3 N3           6.1610     2.4150    13.3950 nh         1 UNL      -0.801600
      4 N4           6.8770    -7.8350     4.3970 nh         1 UNL      -0.798600
      5 N5           4.7640     3.5030    11.8710 nh         1 UNL      -0.801600
      6 C6           5.7350    -3.7520     7.0800 cc         1 UNL      -0.019000
      7 C7           6.1310    -0.5710     9.2490 cc         1 UNL       0.018000
      8 C8           6.1430    -5.0240     7.4480 cc         1 UNL       0.161100
      9 C9           5.5440    -2.7040     8.0990 cf         1 UNL      -0.089000
     10 C10          6.0810    -5.6880     5.1260 cd         1 UNL      -0.122000
     11 C11          5.4970    -3.4290     5.7530 cc         1 UNL      -0.082000
     12 C12          6.3310    -1.6140     8.2550 cf         1 UNL      -0.120000
     13 C13          6.3170    -5.9990     6.4650 cd         1 UNL      -0.182000
     14 C14          5.6720    -4.4030     4.7700 cd         1 UNL      -0.112000
     15 C15          5.4160    -0.8450    10.4140 cc         1 UNL      -0.111500
     16 C16          6.6540     0.7050     9.0350 cc         1 UNL      -0.111500
     17 C17          5.7470     1.4310    11.1530 cd         1 UNL      -0.170000
     18 C18          5.2240     0.1560    11.3660 cd         1 UNL      -0.076000
     19 C19          6.4620     1.7060     9.9870 cd         1 UNL      -0.076000
     20 C20          6.2630    -6.7040     4.1010 c2         1 UNL       0.502000
     21 C21          5.5460     2.4750    12.1460 c2         1 UNL       0.506000
     22 H1           6.1790    -6.2160     9.0590 ho         1 UNL       0.446000
     23 H2           6.0120    -5.6840     2.3170 hn         1 UNL       0.486050
     24 H3           5.2500    -7.2090     2.3680 hn         1 UNL       0.486050
     25 H4           5.9920     1.6500    13.9910 hn         1 UNL       0.484800
     26 H5           6.7640     3.1380    13.6820 hn         1 UNL       0.484800
     27 H6           7.0010    -8.5240     3.7050 hn         1 UNL       0.486050
     28 H7           7.2110    -7.9900     5.3100 hn         1 UNL       0.486050
     29 H8           4.6270     4.2110    12.5410 hn         1 UNL       0.484800
     30 H9           4.3180     3.5620    10.9950 hn         1 UNL       0.484800
     31 H10          4.7460    -2.8110     8.7460 ha         1 UNL       0.161000
     32 H11          5.1940    -2.4770     5.4940 ha         1 UNL       0.166000
     33 H12          7.1370    -1.5150     7.6180 ha         1 UNL       0.143000
     34 H13          6.6200    -6.9490     6.7290 ha         1 UNL       0.157000
     35 H14          5.4970    -4.1730     3.7790 ha         1 UNL       0.159000
     36 H15          5.0300    -1.7890    10.5720 ha         1 UNL       0.165500
     37 H16          7.1830     0.9080     8.1730 ha         1 UNL       0.165500
     38 H17          4.6950    -0.0470    12.2290 ha         1 UNL       0.155500
     39 H18          6.8490     2.6490     9.8300 ha         1 UNL       0.155500
@<TRIPOS>BOND
     1     1     8 1   
     2     2    20 1   
     3     3    21 1   
     4     4    20 1   
     5     5    21 1   
     6     6     8 1   
     7     6     9 2   
     8     6    11 1   
     9     7    12 2   
    10     7    15 1   
    11     7    16 1   
    12     8    13 2   
    13     9    12 1   
    14    10    13 1   
    15    10    14 1   
    16    10    20 2   
    17    11    14 2   
    18    15    18 2   
    19    16    19 2   
    20    17    18 1   
    21    17    19 1   
    22    17    21 2   
    23     1    22 1   
    24     2    23 1   
    25     2    24 1   
    26     3    25 1   
    27     3    26 1   
    28     4    27 1   
    29     4    28 1   
    30     5    29 1   
    31     5    30 1   
    32     9    31 1   
    33    11    32 1   
    34    12    33 1   
    35    13    34 1   
    36    14    35 1   
    37    15    36 1   
    38    16    37 1   
    39    18    38 1   
    40    19    39 1   
@<TRIPOS>SUBSTRUCTURE
     1 UNL         1 TEMP              0 ****  ****    0 ROOT
