@<TRIPOS>MOLECULE
216210
   60    63     1     0     0
SMALL
bcc


@<TRIPOS>ATOM
      1 O1           7.3190    -9.0140    11.5260 o          1 UNL      -0.532100
      2 O2           2.5860    -6.9210    11.4820 o          1 UNL      -0.878300
      3 O3           1.0490    -8.3810    12.2950 o          1 UNL      -0.878300
      4 N4           4.9780    -3.2640    11.0220 na         1 UNL      -0.165300
      5 N5           5.0330    -4.7000     9.3270 nc         1 UNL      -0.554100
      6 N6           5.5770    -9.3250    13.0910 n          1 UNL      -0.489300
      7 N7           5.2220    -2.1750     7.6220 nh         1 UNL      -0.345100
      8 N8           6.5510   -10.1610    15.1300 nb         1 UNL      -0.698000
      9 N9           7.1780    -7.2950     4.2070 nh         1 UNL      -0.785600
     10 N10          5.2960    -6.5920     3.0140 nh         1 UNL      -0.785600
     11 C11          5.3290    -4.5120    11.4820 ca         1 UNL      -0.051200
     12 C12          4.8070    -3.4130     9.7280 cd         1 UNL       0.359800
     13 C13          5.3710    -5.4310    10.4370 ca         1 UNL       0.060400
     14 C14          4.4200    -2.3040     8.8320 c3         1 UNL       0.000000
     15 C15          5.9970    -7.1870    11.9150 ca         1 UNL      -0.151600
     16 C16          5.7010    -6.7750    10.6120 ca         1 UNL      -0.012000
     17 C17          5.6300    -4.9420    12.7850 ca         1 UNL      -0.145000
     18 C18          5.9630    -6.2880    12.9840 ca         1 UNL      -0.069000
     19 C19          4.8350    -2.0660    11.8140 c3         1 UNL       0.031600
     20 C20          6.3480    -8.5780    12.1610 c          1 UNL       0.702700
     21 C21          4.1510    -9.0220    13.2950 c3         1 UNL       0.100000
     22 C22          5.4390    -3.2150     6.7440 cc         1 UNL       0.165700
     23 C23          3.3570    -9.1060    11.9980 c3         1 UNL      -0.194400
     24 C24          6.2000   -10.3960    13.8460 ca         1 UNL       0.550200
     25 C25          6.4040    -4.1800     7.0310 cc         1 UNL      -0.185000
     26 C26          4.6930    -3.3030     5.5690 cc         1 UNL      -0.185000
     27 C27          6.3990   -11.6040    13.1960 ca         1 UNL      -0.287300
     28 C28          6.6240    -5.2320     6.1430 cd         1 UNL      -0.038000
     29 C29          4.9130    -4.3550     4.6800 cd         1 UNL      -0.038000
     30 C30          5.8790    -5.3200     4.9670 cd         1 UNL      -0.187000
     31 C31          2.1970    -8.1350    11.9520 c          1 UNL       0.904600
     32 C32          6.9960   -12.6360    13.9100 ca         1 UNL      -0.069000
     33 C33          7.1290   -11.1890    15.7920 ca         1 UNL       0.427200
     34 C34          7.3710   -12.4330    15.2330 ca         1 UNL      -0.288300
     35 C35          6.1090    -6.4170     4.0400 c2         1 UNL       0.543000
     36 H1           5.6290    -1.3010     7.4210 hn         1 UNL       0.251700
     37 H2           7.4060    -7.6290     5.1050 hn         1 UNL       0.466050
     38 H3           7.7070    -7.5810     3.4270 hn         1 UNL       0.466050
     39 H4           5.4490    -7.3340     2.3850 hn         1 UNL       0.466050
     40 H5           4.5360    -5.9810     2.8770 hn         1 UNL       0.466050
     41 H6           3.4010    -2.4550     8.5390 h1         1 UNL       0.072700
     42 H7           4.5750    -1.4040     9.3890 h1         1 UNL       0.072700
     43 H8           5.7240    -7.4340     9.8180 ha         1 UNL       0.160000
     44 H9           5.6060    -4.2820    13.5780 ha         1 UNL       0.138000
     45 H10          6.1870    -6.6210    13.9350 ha         1 UNL       0.153000
     46 H11          5.0460    -2.2890    12.8390 h1         1 UNL       0.052700
     47 H12          3.8340    -1.6980    11.7280 h1         1 UNL       0.052700
     48 H13          5.5200    -1.3220    11.4630 h1         1 UNL       0.052700
     49 H14          4.0620    -8.0320    13.6910 h1         1 UNL       0.071200
     50 H15          3.7530    -9.7490    13.9730 h1         1 UNL       0.071200
     51 H16          2.9730   -10.1000    11.8970 hc         1 UNL       0.056200
     52 H17          4.0200    -8.8510    11.1990 hc         1 UNL       0.056200
     53 H18          6.9560    -4.1150     7.9010 ha         1 UNL       0.143500
     54 H19          3.9790    -2.5890     5.3560 ha         1 UNL       0.143500
     55 H20          6.1130   -11.7320    12.2120 ha         1 UNL       0.152000
     56 H21          7.3390    -5.9460     6.3550 ha         1 UNL       0.155000
     57 H22          4.3620    -4.4200     3.8100 ha         1 UNL       0.155000
     58 H23          7.1610   -13.5500    13.4590 ha         1 UNL       0.135000
     59 H24          7.4060   -11.0360    16.7740 h4         1 UNL       0.019100
     60 H25          7.8160   -13.1850    15.7820 ha         1 UNL       0.141000
@<TRIPOS>BOND
     1     1    20 2   
     2     2    31 1   
     3     3    31 1   
     4     4    11 1   
     5     4    12 1   
     6     4    19 1   
     7     5    12 2   
     8     5    13 1   
     9     6    20 1   
    10     6    21 1   
    11     6    24 1   
    12     7    14 1   
    13     7    22 2   
    14     8    24 ar  
    15     8    33 ar  
    16     9    35 1   
    17    10    35 1   
    18    11    13 ar  
    19    11    17 ar  
    20    12    14 1   
    21    13    16 ar  
    22    15    16 ar  
    23    15    18 ar  
    24    15    20 1   
    25    17    18 ar  
    26    21    23 1   
    27    22    25 1   
    28    22    26 1   
    29    23    31 1   
    30    24    27 ar  
    31    25    28 2   
    32    26    29 2   
    33    27    32 ar  
    34    28    30 1   
    35    29    30 1   
    36    30    35 2   
    37    32    34 ar  
    38    33    34 ar  
    39     7    36 1   
    40     9    37 1   
    41     9    38 1   
    42    10    39 1   
    43    10    40 1   
    44    14    41 1   
    45    14    42 1   
    46    16    43 1   
    47    17    44 1   
    48    18    45 1   
    49    19    46 1   
    50    19    47 1   
    51    19    48 1   
    52    21    49 1   
    53    21    50 1   
    54    23    51 1   
    55    23    52 1   
    56    25    53 1   
    57    26    54 1   
    58    27    55 1   
    59    28    56 1   
    60    29    57 1   
    61    32    58 1   
    62    33    59 1   
    63    34    60 1   
@<TRIPOS>SUBSTRUCTURE
     1 UNL         1 TEMP              0 ****  ****    0 ROOT
