@<TRIPOS>MOLECULE
216210
   60    63     1     0     0
SMALL
bcc


@<TRIPOS>ATOM
      1 O1           4.7160     5.1350    11.8250 o          1 UNL      -0.581100
      2 O2          10.1310     4.0130     9.0650 o          1 UNL      -0.864300
      3 O3           9.3550     2.4580    10.5260 o          1 UNL      -0.864300
      4 N4           5.7990    -0.9500    10.8820 na         1 UNL      -0.161300
      5 N5           6.6210     0.4370     9.3520 nc         1 UNL      -0.569100
      6 N6           6.9640     5.1260    12.5490 n          1 UNL      -0.471300
      7 N7           5.8230    -2.1210     7.6240 nh         1 UNL      -0.330100
      8 N8           5.6790     6.8790    13.5880 nb         1 UNL      -0.665000
      9 N9           6.9020    -7.5560     4.3080 nh         1 UNL      -0.810100
     10 N10          5.5290    -6.3500     2.8520 nh         1 UNL      -0.810100
     11 C11          5.7130     0.3460    11.3350 ca         1 UNL      -0.053200
     12 C12          6.3480    -0.8590     9.6910 cd         1 UNL       0.359800
     13 C13          6.2230     1.2350    10.3930 ca         1 UNL       0.062400
     14 C14          6.6250    -2.0330     8.8380 c3         1 UNL      -0.013000
     15 C15          5.7570     3.0980    11.7970 ca         1 UNL      -0.146600
     16 C16          6.2620     2.6170    10.5850 ca         1 UNL      -0.028000
     17 C17          5.2100     0.8470    12.5480 ca         1 UNL      -0.143000
     18 C18          5.2400     2.2310    12.7630 ca         1 UNL      -0.068000
     19 C19          5.3700    -2.1350    11.5840 c3         1 UNL       0.032600
     20 C20          5.7720     4.5300    12.0560 c          1 UNL       0.682700
     21 C21          8.2800     4.5680    12.1960 c3         1 UNL       0.095000
     22 C22          5.9050    -3.1740     6.7390 cc         1 UNL       0.115700
     23 C23          8.6110     4.7710    10.7240 c3         1 UNL      -0.174400
     24 C24          6.8840     6.2940    13.4060 ca         1 UNL       0.520200
     25 C25          6.9040    -4.1360     6.8900 cc         1 UNL      -0.149500
     26 C26          4.9890    -3.2770     5.6920 cc         1 UNL      -0.149500
     27 C27          8.0590     6.7410    13.9880 ca         1 UNL      -0.227300
     28 C28          6.9870    -5.2010     5.9940 cd         1 UNL      -0.065500
     29 C29          5.0730    -4.3430     4.7950 cd         1 UNL      -0.065500
     30 C30          6.0720    -5.3050     4.9460 cd         1 UNL      -0.166000
     31 C31          9.3840     3.6140    10.1280 c          1 UNL       0.902600
     32 C32          7.9930     7.8600    14.8100 ca         1 UNL      -0.093000
     33 C33          5.6540     7.9640    14.3940 ca         1 UNL       0.406200
     34 C34          6.7710     8.4890    15.0220 ca         1 UNL      -0.255300
     35 C35          6.1590    -6.4150     4.0110 c2         1 UNL       0.475000
     36 H1           5.1920    -1.3910     7.4260 hn         1 UNL       0.239700
     37 H2           7.2150    -7.7140     5.2280 hn         1 UNL       0.480550
     38 H3           7.1130    -8.2050     3.5980 hn         1 UNL       0.480550
     39 H4           5.5860    -7.1010     2.2170 hn         1 UNL       0.480550
     40 H5           5.0010    -5.5510     2.6220 hn         1 UNL       0.480550
     41 H6           7.6550    -2.0000     8.5530 h1         1 UNL       0.073700
     42 H7           6.3710    -2.8920     9.4240 h1         1 UNL       0.073700
     43 H8           6.6460     3.2520     9.8680 ha         1 UNL       0.163000
     44 H9           4.8280     0.2100    13.2640 ha         1 UNL       0.137000
     45 H10          4.8750     2.6160    13.6480 ha         1 UNL       0.153000
     46 H11          4.9640    -1.8590    12.5350 h1         1 UNL       0.051367
     47 H12          6.2060    -2.7870    11.7290 h1         1 UNL       0.051367
     48 H13          4.6200    -2.6390    11.0100 h1         1 UNL       0.051367
     49 H14          8.2780     3.5200    12.4090 h1         1 UNL       0.070700
     50 H15          9.0200     5.0800    12.7740 h1         1 UNL       0.070700
     51 H16          9.1990     5.6600    10.6250 hc         1 UNL       0.052700
     52 H17          7.6850     4.8440    10.1940 hc         1 UNL       0.052700
     53 H18          7.5810    -4.0590     7.6650 ha         1 UNL       0.156000
     54 H19          4.2500    -2.5660     5.5800 ha         1 UNL       0.156000
     55 H20          8.9550     6.2590    13.8160 ha         1 UNL       0.154000
     56 H21          7.7260    -5.9130     6.1050 ha         1 UNL       0.172000
     57 H22          4.3960    -4.4190     4.0200 ha         1 UNL       0.172000
     58 H23          8.8480     8.2230    15.2610 ha         1 UNL       0.136000
     59 H24          4.7460     8.4300    14.5500 h4         1 UNL       0.020100
     60 H25          6.6990     9.3210    15.6290 ha         1 UNL       0.140000
@<TRIPOS>BOND
     1     1    20 2   
     2     2    31 1   
     3     3    31 1   
     4     4    11 1   
     5     4    12 1   
     6     4    19 1   
     7     5    12 2   
     8     5    13 1   
     9     6    20 1   
    10     6    21 1   
    11     6    24 1   
    12     7    14 1   
    13     7    22 2   
    14     8    24 ar  
    15     8    33 ar  
    16     9    35 1   
    17    10    35 1   
    18    11    13 ar  
    19    11    17 ar  
    20    12    14 1   
    21    13    16 ar  
    22    15    16 ar  
    23    15    18 ar  
    24    15    20 1   
    25    17    18 ar  
    26    21    23 1   
    27    22    25 1   
    28    22    26 1   
    29    23    31 1   
    30    24    27 ar  
    31    25    28 2   
    32    26    29 2   
    33    27    32 ar  
    34    28    30 1   
    35    29    30 1   
    36    30    35 2   
    37    32    34 ar  
    38    33    34 ar  
    39     7    36 1   
    40     9    37 1   
    41     9    38 1   
    42    10    39 1   
    43    10    40 1   
    44    14    41 1   
    45    14    42 1   
    46    16    43 1   
    47    17    44 1   
    48    18    45 1   
    49    19    46 1   
    50    19    47 1   
    51    19    48 1   
    52    21    49 1   
    53    21    50 1   
    54    23    51 1   
    55    23    52 1   
    56    25    53 1   
    57    26    54 1   
    58    27    55 1   
    59    28    56 1   
    60    29    57 1   
    61    32    58 1   
    62    33    59 1   
    63    34    60 1   
@<TRIPOS>SUBSTRUCTURE
     1 UNL         1 TEMP              0 ****  ****    0 ROOT
