@<TRIPOS>MOLECULE
216210
   60    63     1     0     0
SMALL
bcc


@<TRIPOS>ATOM
      1 O1           2.0330    -2.2040    15.5730 o          1 UNL      -0.595100
      2 O2           5.4850     3.3480    14.3360 o          1 UNL      -0.886300
      3 O3           4.5180     1.9590    12.8220 o          1 UNL      -0.886300
      4 N4           6.5150    -1.8870    11.2230 na         1 UNL      -0.164300
      5 N5           4.4710    -1.3410    10.5430 nc         1 UNL      -0.548100
      6 N6           2.2390     0.1490    15.5370 n          1 UNL      -0.462300
      7 N7           5.2800    -2.0770     7.7900 nh         1 UNL      -0.355100
      8 N8           0.5210     0.9740    17.0110 nb         1 UNL      -0.688000
      9 N9           7.2380    -7.1720     4.3380 nh         1 UNL      -0.771600
     10 N10          5.2810    -6.5420     3.2270 nh         1 UNL      -0.771600
     11 C11          5.6830    -1.7540    12.3110 ca         1 UNL      -0.049200
     12 C12          5.7560    -1.6320    10.1810 cd         1 UNL       0.353800
     13 C13          4.3950    -1.4110    11.9100 ca         1 UNL       0.051400
     14 C14          6.2570    -1.6660     8.7910 c3         1 UNL      -0.003000
     15 C15          3.6300    -1.3710    14.1630 ca         1 UNL      -0.143600
     16 C16          3.3420    -1.2110    12.8030 ca         1 UNL      -0.031000
     17 C17          5.9550    -1.9100    13.6810 ca         1 UNL      -0.140000
     18 C18          4.9130    -1.7140    14.5960 ca         1 UNL      -0.057000
     19 C19          7.9150    -2.2350    11.2510 c3         1 UNL       0.031600
     20 C20          2.5730    -1.1750    15.1430 c          1 UNL       0.683700
     21 C21          2.4010     1.2710    14.6000 c3         1 UNL       0.107000
     22 C22          5.4910    -3.1190     6.9130 cc         1 UNL       0.150700
     23 C23          3.5150     2.2180    15.0280 c3         1 UNL      -0.179400
     24 C24          1.7350     0.3950    16.8750 ca         1 UNL       0.523200
     25 C25          5.5660    -2.8730     5.5420 cc         1 UNL      -0.172500
     26 C26          5.6270    -4.4210     7.3960 cc         1 UNL      -0.172500
     27 C27          2.5380     0.0190    17.9400 ca         1 UNL      -0.225300
     28 C28          5.7780    -3.9280     4.6550 cd         1 UNL      -0.051000
     29 C29          5.8380    -5.4760     6.5090 cd         1 UNL      -0.051000
     30 C30          5.9140    -5.2290     5.1380 cd         1 UNL      -0.183000
     31 C31          4.5310     2.4660    13.9340 c          1 UNL       0.911600
     32 C32          2.0640     0.2520    19.2260 ca         1 UNL      -0.087000
     33 C33          0.0940     1.1850    18.2760 ca         1 UNL       0.408200
     34 C34          0.8200     0.8450    19.4060 ca         1 UNL      -0.263300
     35 C35          6.1350    -6.3290     4.2130 c2         1 UNL       0.483000
     36 H1           4.4280    -1.5870     7.7380 hn         1 UNL       0.241700
     37 H2           7.8260    -7.3300     3.5640 hn         1 UNL       0.479300
     38 H3           7.4290    -7.6080     5.1990 hn         1 UNL       0.479300
     39 H4           5.4280    -7.2860     2.6000 hn         1 UNL       0.479300
     40 H5           4.4970    -5.9560     3.1200 hn         1 UNL       0.479300
     41 H6           6.5970    -0.6840     8.5380 h1         1 UNL       0.083700
     42 H7           7.0310    -2.4040     8.7720 h1         1 UNL       0.083700
     43 H8           2.3960    -0.9580    12.4770 ha         1 UNL       0.162000
     44 H9           6.9020    -2.1630    14.0050 ha         1 UNL       0.140000
     45 H10          5.0960    -1.8240    15.6060 ha         1 UNL       0.155000
     46 H11          8.2270    -2.3770    12.2650 h1         1 UNL       0.051367
     47 H12          8.4870    -1.4450    10.8100 h1         1 UNL       0.051367
     48 H13          8.0700    -3.1390    10.7000 h1         1 UNL       0.051367
     49 H14          1.4820     1.8180    14.5540 h1         1 UNL       0.055700
     50 H15          2.6610     0.8680    13.6440 h1         1 UNL       0.055700
     51 H16          4.0180     1.7940    15.8710 hc         1 UNL       0.061700
     52 H17          3.0630     3.1590    15.2640 hc         1 UNL       0.061700
     53 H18          5.4660    -1.9100     5.1850 ha         1 UNL       0.155000
     54 H19          5.5710    -4.6030     8.4110 ha         1 UNL       0.155000
     55 H20          3.4590    -0.4200    17.7830 ha         1 UNL       0.165000
     56 H21          5.8340    -3.7450     3.6410 ha         1 UNL       0.145500
     57 H22          5.9390    -6.4380     6.8660 ha         1 UNL       0.145500
     58 H23          2.6340    -0.0150    20.0450 ha         1 UNL       0.137000
     59 H24         -0.8300     1.6260    18.4080 h4         1 UNL       0.018100
     60 H25          0.4490     1.0270    20.3520 ha         1 UNL       0.141000
@<TRIPOS>BOND
     1     1    20 2   
     2     2    31 1   
     3     3    31 1   
     4     4    11 1   
     5     4    12 1   
     6     4    19 1   
     7     5    12 2   
     8     5    13 1   
     9     6    20 1   
    10     6    21 1   
    11     6    24 1   
    12     7    14 1   
    13     7    22 2   
    14     8    24 ar  
    15     8    33 ar  
    16     9    35 1   
    17    10    35 1   
    18    11    13 ar  
    19    11    17 ar  
    20    12    14 1   
    21    13    16 ar  
    22    15    16 ar  
    23    15    18 ar  
    24    15    20 1   
    25    17    18 ar  
    26    21    23 1   
    27    22    25 1   
    28    22    26 1   
    29    23    31 1   
    30    24    27 ar  
    31    25    28 2   
    32    26    29 2   
    33    27    32 ar  
    34    28    30 1   
    35    29    30 1   
    36    30    35 2   
    37    32    34 ar  
    38    33    34 ar  
    39     7    36 1   
    40     9    37 1   
    41     9    38 1   
    42    10    39 1   
    43    10    40 1   
    44    14    41 1   
    45    14    42 1   
    46    16    43 1   
    47    17    44 1   
    48    18    45 1   
    49    19    46 1   
    50    19    47 1   
    51    19    48 1   
    52    21    49 1   
    53    21    50 1   
    54    23    51 1   
    55    23    52 1   
    56    25    53 1   
    57    26    54 1   
    58    27    55 1   
    59    28    56 1   
    60    29    57 1   
    61    32    58 1   
    62    33    59 1   
    63    34    60 1   
@<TRIPOS>SUBSTRUCTURE
     1 UNL         1 TEMP              0 ****  ****    0 ROOT
