@<TRIPOS>MOLECULE
216210
   60    63     1     0     0
SMALL
bcc


@<TRIPOS>ATOM
      1 O1           5.8930     4.8940    11.6270 o          1 UNL      -0.570100
      2 O2           4.1230     0.5280    16.7540 o          1 UNL      -0.863800
      3 O3           6.3080     0.9900    16.3410 o          1 UNL      -0.863800
      4 N4           7.2670    -1.1460    10.9070 na         1 UNL      -0.147300
      5 N5           5.4270    -0.2910     9.9990 nc         1 UNL      -0.523100
      6 N6           5.1870     4.2120    13.7760 n          1 UNL      -0.479300
      7 N7           5.7300    -2.4440     7.9080 nh         1 UNL      -0.340100
      8 N8           4.3840     6.4510    13.3910 nb         1 UNL      -0.671000
      9 N9           7.0590    -7.5710     4.2140 nh         1 UNL      -0.855100
     10 N10          5.3660    -6.5110     3.0010 nh         1 UNL      -0.855100
     11 C11          7.0460     0.1170    11.4060 ca         1 UNL      -0.034200
     12 C12          6.2790    -1.3590    10.0670 cd         1 UNL       0.367800
     13 C13          5.8980     0.6750    10.8510 ca         1 UNL       0.067400
     14 C14          6.1260    -2.6120     9.3010 c3         1 UNL       0.024000
     15 C15          6.1800     2.6760    12.1070 ca         1 UNL      -0.153600
     16 C16          5.4310     1.9490    11.1750 ca         1 UNL      -0.019000
     17 C17          7.7860     0.8610    12.3400 ca         1 UNL      -0.139000
     18 C18          7.3370     2.1430    12.6800 ca         1 UNL      -0.075000
     19 C19          8.3570    -2.0270    11.2520 c3         1 UNL       0.027600
     20 C20          5.7440     4.0120    12.4840 c          1 UNL       0.692700
     21 C21          5.6120     3.3790    14.9110 c3         1 UNL       0.099000
     22 C22          5.8310    -3.4460     6.9670 cc         1 UNL       0.261700
     23 C23          4.5730     2.3230    15.2670 c3         1 UNL      -0.192400
     24 C24          4.1900     5.2480    13.9760 ca         1 UNL       0.534200
     25 C25          6.4980    -4.6310     7.2790 cc         1 UNL      -0.231500
     26 C26          5.2660    -3.2750     5.7030 cc         1 UNL      -0.231500
     27 C27          3.0940     4.9350    14.7630 ca         1 UNL      -0.250300
     28 C28          6.6010    -5.6440     6.3270 cd         1 UNL      -0.021000
     29 C29          5.3690    -4.2880     4.7510 cd         1 UNL      -0.021000
     30 C30          6.0360    -5.4730     5.0620 cd         1 UNL      -0.298000
     31 C31          5.1230     1.2300    16.1570 c          1 UNL       0.916600
     32 C32          2.1330     5.9210    14.9620 ca         1 UNL      -0.087000
     33 C33          3.4290     7.3840    13.6070 ca         1 UNL       0.410200
     34 C34          2.2970     7.1710    14.3770 ca         1 UNL      -0.269300
     35 C35          6.1440    -6.5300     4.0690 c2         1 UNL       0.516000
     36 H1           5.3730    -1.5710     7.6250 hn         1 UNL       0.386700
     37 H2           7.6080    -7.6340     5.0290 hn         1 UNL       0.461050
     38 H3           7.1580    -8.2430     3.5010 hn         1 UNL       0.461050
     39 H4           5.4370    -7.2250     2.3280 hn         1 UNL       0.461050
     40 H5           4.7150    -5.7820     2.8790 hn         1 UNL       0.461050
     41 H6           7.0640    -3.1270     9.3180 h1         1 UNL       0.066200
     42 H7           5.3330    -3.1540     9.7720 h1         1 UNL       0.066200
     43 H8           4.5760     2.3370    10.7470 ha         1 UNL       0.158000
     44 H9           8.6420     0.4720    12.7660 ha         1 UNL       0.135000
     45 H10          7.8680     2.7030    13.3650 ha         1 UNL       0.147000
     46 H11          8.9900    -1.5470    11.9690 h1         1 UNL       0.051700
     47 H12          8.9230    -2.2550    10.3730 h1         1 UNL       0.051700
     48 H13          7.9660    -2.9310    11.6690 h1         1 UNL       0.051700
     49 H14          5.7690     4.0090    15.7620 h1         1 UNL       0.067700
     50 H15          6.5120     2.8740    14.6310 h1         1 UNL       0.067700
     51 H16          4.2150     1.8780    14.3620 hc         1 UNL       0.046700
     52 H17          3.7900     2.8130    15.8070 hc         1 UNL       0.046700
     53 H18          6.9150    -4.7570     8.2140 ha         1 UNL       0.196000
     54 H19          4.7730    -2.3980     5.4730 ha         1 UNL       0.196000
     55 H20          2.9930     4.0000    15.1880 ha         1 UNL       0.157000
     56 H21          7.0940    -6.5210     6.5570 ha         1 UNL       0.124500
     57 H22          4.9520    -4.1620     3.8150 ha         1 UNL       0.124500
     58 H23          1.3030     5.7250    15.5430 ha         1 UNL       0.134000
     59 H24          3.5520     8.3120    13.1720 h4         1 UNL       0.018100
     60 H25          1.5970     7.9170    14.5110 ha         1 UNL       0.138000
@<TRIPOS>BOND
     1     1    20 2   
     2     2    31 1   
     3     3    31 1   
     4     4    11 1   
     5     4    12 1   
     6     4    19 1   
     7     5    12 2   
     8     5    13 1   
     9     6    20 1   
    10     6    21 1   
    11     6    24 1   
    12     7    14 1   
    13     7    22 2   
    14     8    24 ar  
    15     8    33 ar  
    16     9    35 1   
    17    10    35 1   
    18    11    13 ar  
    19    11    17 ar  
    20    12    14 1   
    21    13    16 ar  
    22    15    16 ar  
    23    15    18 ar  
    24    15    20 1   
    25    17    18 ar  
    26    21    23 1   
    27    22    25 1   
    28    22    26 1   
    29    23    31 1   
    30    24    27 ar  
    31    25    28 2   
    32    26    29 2   
    33    27    32 ar  
    34    28    30 1   
    35    29    30 1   
    36    30    35 2   
    37    32    34 ar  
    38    33    34 ar  
    39     7    36 1   
    40     9    37 1   
    41     9    38 1   
    42    10    39 1   
    43    10    40 1   
    44    14    41 1   
    45    14    42 1   
    46    16    43 1   
    47    17    44 1   
    48    18    45 1   
    49    19    46 1   
    50    19    47 1   
    51    19    48 1   
    52    21    49 1   
    53    21    50 1   
    54    23    51 1   
    55    23    52 1   
    56    25    53 1   
    57    26    54 1   
    58    27    55 1   
    59    28    56 1   
    60    29    57 1   
    61    32    58 1   
    62    33    59 1   
    63    34    60 1   
@<TRIPOS>SUBSTRUCTURE
     1 UNL         1 TEMP              0 ****  ****    0 ROOT
