@<TRIPOS>MOLECULE
216210
   60    63     1     0     0
SMALL
bcc


@<TRIPOS>ATOM
      1 O1           1.2740    -7.8390    12.2320 o          1 UNL      -0.532100
      2 O2           1.8090    -5.2320    16.6620 o          1 UNL      -0.878300
      3 O3           2.7210    -6.7650    18.0660 o          1 UNL      -0.878300
      4 N4           7.3990    -8.2830    11.2400 na         1 UNL      -0.165300
      5 N5           6.1150    -6.5770    10.6220 nc         1 UNL      -0.554100
      6 N6           1.8000    -8.5900    14.4090 n          1 UNL      -0.489300
      7 N7           8.3200    -6.5410     8.3610 nh         1 UNL      -0.345100
      8 N8          -0.4070    -9.2770    13.7270 nb         1 UNL      -0.698000
      9 N9           3.8060    -2.5070     6.1150 nh         1 UNL      -0.785600
     10 N10          5.7330    -1.7450     5.0350 nh         1 UNL      -0.785600
     11 C11          6.1410    -8.4300    11.7770 ca         1 UNL      -0.051200
     12 C12          7.3490    -7.1630    10.5540 cd         1 UNL       0.359800
     13 C13          5.3170    -7.3720    11.4040 ca         1 UNL       0.060400
     14 C14          8.5020    -6.6220     9.8050 c3         1 UNL       0.000000
     15 C15          3.4850    -8.2790    12.6210 ca         1 UNL      -0.151600
     16 C16          3.9850    -7.2600    11.8040 ca         1 UNL      -0.012000
     17 C17          5.6230    -9.4450    12.5990 ca         1 UNL      -0.145000
     18 C18          4.2880    -9.3530    13.0130 ca         1 UNL      -0.069000
     19 C19          8.5150    -9.1830    11.4090 c3         1 UNL       0.031600
     20 C20          2.1030    -8.2180    13.0720 c          1 UNL       0.702700
     21 C21          2.7880    -8.3950    15.4820 c3         1 UNL       0.100000
     22 C22          7.5500    -5.5750     7.7500 cc         1 UNL       0.165700
     23 C23          3.1440    -6.9270    15.6710 c3         1 UNL      -0.194400
     24 C24          0.5060    -9.1680    14.7190 ca         1 UNL       0.550200
     25 C25          7.6970    -4.2350     8.1100 cc         1 UNL      -0.185000
     26 C26          6.6220    -5.9370     6.7740 cc         1 UNL      -0.185000
     27 C27          0.2840    -9.5750    16.0250 ca         1 UNL      -0.287300
     28 C28          6.9170    -3.2580     7.4920 cd         1 UNL      -0.038000
     29 C29          5.8410    -4.9600     6.1570 cd         1 UNL      -0.038000
     30 C30          5.9890    -3.6200     6.5160 cd         1 UNL      -0.187000
     31 C31          2.5560    -6.3340    16.9340 c          1 UNL       0.904600
     32 C32         -0.9530   -10.1290    16.3330 ca         1 UNL      -0.069000
     33 C33         -1.5980    -9.8210    14.0640 ca         1 UNL       0.427200
     34 C34         -1.9180   -10.2580    15.3400 ca         1 UNL      -0.288300
     35 C35          5.1750    -2.6010     5.8720 c2         1 UNL       0.543000
     36 H1           8.7690    -7.2080     7.7950 hn         1 UNL       0.251700
     37 H2           3.4550    -1.7800     6.6800 hn         1 UNL       0.466050
     38 H3           3.1890    -3.1660     5.7220 hn         1 UNL       0.466050
     39 H4           5.1830    -1.0540     4.5980 hn         1 UNL       0.466050
     40 H5           6.6980    -1.7970     4.8480 hn         1 UNL       0.466050
     41 H6           8.7010    -5.6360    10.1700 h1         1 UNL       0.072700
     42 H7           9.3070    -7.3080     9.9650 h1         1 UNL       0.072700
     43 H8           3.3970    -6.4640    11.5110 ha         1 UNL       0.160000
     44 H9           6.2120   -10.2400    12.8910 ha         1 UNL       0.138000
     45 H10          3.8910   -10.0900    13.6170 ha         1 UNL       0.153000
     46 H11          8.2210   -10.0030    12.0290 h1         1 UNL       0.052700
     47 H12          9.3270    -8.6610    11.8700 h1         1 UNL       0.052700
     48 H13          8.8240    -9.5510    10.4530 h1         1 UNL       0.052700
     49 H14          3.6770    -8.9370    15.2360 h1         1 UNL       0.071200
     50 H15          2.3570    -8.7500    16.3950 h1         1 UNL       0.071200
     51 H16          2.7760    -6.3750    14.8320 hc         1 UNL       0.056200
     52 H17          4.2090    -6.8630    15.7540 hc         1 UNL       0.056200
     53 H18          8.3840    -3.9670     8.8320 ha         1 UNL       0.143500
     54 H19          6.5130    -6.9280     6.5080 ha         1 UNL       0.143500
     55 H20          1.0140    -9.4700    16.7470 ha         1 UNL       0.152000
     56 H21          7.0260    -2.2660     7.7580 ha         1 UNL       0.155000
     57 H22          5.1550    -5.2280     5.4340 ha         1 UNL       0.155000
     58 H23         -1.1550   -10.4440    17.2950 ha         1 UNL       0.135000
     59 H24         -2.3130    -9.9160    13.3260 h4         1 UNL       0.019100
     60 H25         -2.8430   -10.6670    15.5460 ha         1 UNL       0.141000
@<TRIPOS>BOND
     1     1    20 2   
     2     2    31 1   
     3     3    31 1   
     4     4    11 1   
     5     4    12 1   
     6     4    19 1   
     7     5    12 2   
     8     5    13 1   
     9     6    20 1   
    10     6    21 1   
    11     6    24 1   
    12     7    14 1   
    13     7    22 2   
    14     8    24 ar  
    15     8    33 ar  
    16     9    35 1   
    17    10    35 1   
    18    11    13 ar  
    19    11    17 ar  
    20    12    14 1   
    21    13    16 ar  
    22    15    16 ar  
    23    15    18 ar  
    24    15    20 1   
    25    17    18 ar  
    26    21    23 1   
    27    22    25 1   
    28    22    26 1   
    29    23    31 1   
    30    24    27 ar  
    31    25    28 2   
    32    26    29 2   
    33    27    32 ar  
    34    28    30 1   
    35    29    30 1   
    36    30    35 2   
    37    32    34 ar  
    38    33    34 ar  
    39     7    36 1   
    40     9    37 1   
    41     9    38 1   
    42    10    39 1   
    43    10    40 1   
    44    14    41 1   
    45    14    42 1   
    46    16    43 1   
    47    17    44 1   
    48    18    45 1   
    49    19    46 1   
    50    19    47 1   
    51    19    48 1   
    52    21    49 1   
    53    21    50 1   
    54    23    51 1   
    55    23    52 1   
    56    25    53 1   
    57    26    54 1   
    58    27    55 1   
    59    28    56 1   
    60    29    57 1   
    61    32    58 1   
    62    33    59 1   
    63    34    60 1   
@<TRIPOS>SUBSTRUCTURE
     1 UNL         1 TEMP              0 ****  ****    0 ROOT
