@<TRIPOS>MOLECULE
5284571
   39    40     1     0     0
SMALL
bcc


@<TRIPOS>ATOM
      1 O1           6.5820     1.3500     7.8610 oh         1 UNL      -0.467100
      2 N2           4.1890     3.4680    12.3600 nh         1 UNL      -0.798600
      3 N3           7.1960    -7.3010     4.3830 nh         1 UNL      -0.800100
      4 N4           6.3110     3.0200    13.2320 nh         1 UNL      -0.798600
      5 N5           5.3250    -6.5180     3.2210 nh         1 UNL      -0.800100
      6 C6           6.0310    -0.3210     9.4980 cc         1 UNL      -0.080000
      7 C7           5.5130    -3.3130     7.0990 cc         1 UNL       0.007000
      8 C8           6.2040     1.0030     9.1250 cc         1 UNL       0.160100
      9 C9           6.2520    -1.4060     8.5250 cf         1 UNL      -0.119000
     10 C10          5.6020     1.6860    11.3630 cd         1 UNL      -0.123000
     11 C11          5.6460    -0.6600    10.7860 cc         1 UNL      -0.071000
     12 C12          5.2990    -2.2540     8.0730 cf         1 UNL      -0.104000
     13 C13          5.9880     2.0130    10.0630 cd         1 UNL      -0.120000
     14 C14          5.4300     0.3500    11.7240 cd         1 UNL      -0.122000
     15 C15          6.4250    -4.3330     7.3670 cc         1 UNL      -0.109500
     16 C16          4.8060    -3.3080     5.8960 cc         1 UNL      -0.109500
     17 C17          5.9250    -5.3430     5.2300 cd         1 UNL      -0.166000
     18 C18          6.6310    -5.3480     6.4320 cd         1 UNL      -0.076500
     19 C19          5.0120    -4.3230     4.9620 cd         1 UNL      -0.076500
     20 C20          5.3760     2.7380    12.3410 c2         1 UNL       0.503000
     21 C21          6.1400    -6.4010     4.2550 c2         1 UNL       0.504000
     22 H1           5.9710     1.2830     7.1540 ho         1 UNL       0.442000
     23 H2           3.3540     3.0420    12.6610 hn         1 UNL       0.486050
     24 H3           4.1850     4.4100    12.0730 hn         1 UNL       0.486050
     25 H4           7.5220    -7.7920     3.5950 hn         1 UNL       0.485550
     26 H5           7.6160    -7.4450     5.2620 hn         1 UNL       0.485550
     27 H6           6.1600     3.7320    13.8950 hn         1 UNL       0.486050
     28 H7           7.1570     2.5180    13.2320 hn         1 UNL       0.486050
     29 H8           5.4690    -7.2340     2.5610 hn         1 UNL       0.485550
     30 H9           4.5750    -5.8910     3.1120 hn         1 UNL       0.485550
     31 H10          7.2100    -1.5280     8.1600 ha         1 UNL       0.141000
     32 H11          5.5210    -1.6500    11.0480 ha         1 UNL       0.165000
     33 H12          4.3450    -2.1410     8.4490 ha         1 UNL       0.151000
     34 H13          6.1150     3.0010     9.7950 ha         1 UNL       0.176000
     35 H14          5.1440     0.1080    12.6860 ha         1 UNL       0.158000
     36 H15          6.9480    -4.3370     8.2570 ha         1 UNL       0.166000
     37 H16          4.1310    -2.5530     5.6980 ha         1 UNL       0.166000
     38 H17          7.3060    -6.1030     6.6310 ha         1 UNL       0.157500
     39 H18          4.4890    -4.3190     4.0720 ha         1 UNL       0.157500
@<TRIPOS>BOND
     1     1     8 1   
     2     2    20 1   
     3     3    21 1   
     4     4    20 1   
     5     5    21 1   
     6     6     8 1   
     7     6     9 2   
     8     6    11 1   
     9     7    12 2   
    10     7    15 1   
    11     7    16 1   
    12     8    13 2   
    13     9    12 1   
    14    10    13 1   
    15    10    14 1   
    16    10    20 2   
    17    11    14 2   
    18    15    18 2   
    19    16    19 2   
    20    17    18 1   
    21    17    19 1   
    22    17    21 2   
    23     1    22 1   
    24     2    23 1   
    25     2    24 1   
    26     3    25 1   
    27     3    26 1   
    28     4    27 1   
    29     4    28 1   
    30     5    29 1   
    31     5    30 1   
    32     9    31 1   
    33    11    32 1   
    34    12    33 1   
    35    13    34 1   
    36    14    35 1   
    37    15    36 1   
    38    16    37 1   
    39    18    38 1   
    40    19    39 1   
@<TRIPOS>SUBSTRUCTURE
     1 UNL         1 TEMP              0 ****  ****    0 ROOT
