@<TRIPOS>MOLECULE
4735
 51 52 0 0 0
SMALL
GASTEIGER

@<TRIPOS>ATOM
      1 O1          3.6669    1.6417   -0.1035 O.3       1    UNL1    -0.4920
      2 O2         -3.6640    1.6313   -0.1582 O.3       1    UNL1    -0.4920
      3 N3          9.1993   -1.3605    1.3072 N.pl3     1    UNL1    -0.2497
      4 N4         -8.5761   -2.5251   -0.6091 N.pl3     1    UNL1    -0.2497
      5 N5          8.5360   -2.4390   -0.6569 N.2       1    UNL1    -0.2884
      6 N6         -9.1446   -1.2890    1.2908 N.2       1    UNL1    -0.2884
      7 C7         -0.0035    1.0239   -0.7507 C.3       1    UNL1    -0.0469
      8 C8          1.2554    1.6400   -0.1334 C.3       1    UNL1    -0.0185
      9 C9         -1.2696    1.6515   -0.1705 C.3       1    UNL1    -0.0185
     10 C10         2.5323    1.0519   -0.7215 C.3       1    UNL1     0.0896
     11 C11        -2.5268    1.0158   -0.7470 C.3       1    UNL1     0.0896
     12 C12         4.7951    0.8679   -0.0131 C.ar      1    UNL1     0.1205
     13 C13        -4.7936    0.8631   -0.0444 C.ar      1    UNL1     0.1205
     14 C14         5.0539   -0.1033   -0.9803 C.ar      1    UNL1    -0.0191
     15 C15        -5.6903    1.0920    0.9993 C.ar      1    UNL1    -0.0191
     16 C16         5.6852    1.0535    1.0448 C.ar      1    UNL1    -0.0191
     17 C17        -5.0476   -0.1459   -0.9736 C.ar      1    UNL1    -0.0191
     18 C18         7.0927   -0.7038    0.1682 C.ar      1    UNL1     0.0610
     19 C19        -7.0948   -0.6972    0.1848 C.ar      1    UNL1     0.0610
     20 C20         6.2027   -0.8891   -0.8896 C.ar      1    UNL1    -0.0436
     21 C21        -6.8409    0.3118    1.1139 C.ar      1    UNL1    -0.0436
     22 C22         6.8339    0.2675    1.1355 C.ar      1    UNL1    -0.0436
     23 C23        -6.1981   -0.9260   -0.8589 C.ar      1    UNL1    -0.0436
     24 C24         8.2910   -1.5225    0.2627 C.2       1    UNL1     0.2662
     25 C25        -8.2947   -1.5104    0.3037 C.2       1    UNL1     0.2662
     26 H1         10.0042   -1.9257    1.3517 H         1    UNL1     0.2883
     27 H2          9.0361   -0.6809    2.0005 H         1    UNL1     0.2883
     28 H3         -9.3943   -3.0636   -0.5098 H         1    UNL1     0.2883
     29 H4         -7.9567   -2.7035   -1.3533 H         1    UNL1     0.2883
     30 H5          9.3466   -2.9943   -0.5948 H         1    UNL1     0.3009
     31 H6          7.9080   -2.5667   -1.4042 H         1    UNL1     0.3009
     32 H7         -9.9574   -1.8384    1.3731 H         1    UNL1     0.3009
     33 H8         -8.9651   -0.5747    1.9441 H         1    UNL1     0.3009
     34 H9         -0.0118   -0.0271   -0.5499 H         1    UNL1     0.0267
     35 H10         0.0123    1.2075   -1.8047 H         1    UNL1     0.0267
     36 H11         1.2463    1.4585    0.9211 H         1    UNL1     0.0298
     37 H12         1.2473    2.6881   -0.3484 H         1    UNL1     0.0298
     38 H13        -1.2740    2.6971   -0.3977 H         1    UNL1     0.0298
     39 H14        -1.2682    1.4895    0.8872 H         1    UNL1     0.0298
     40 H15         2.5462   -0.0047   -0.5534 H         1    UNL1     0.0696
     41 H16         2.5603    1.2520   -1.7722 H         1    UNL1     0.0696
     42 H17        -2.5487    1.1599   -1.8070 H         1    UNL1     0.0696
     43 H18        -2.5322   -0.0333   -0.5367 H         1    UNL1     0.0696
     44 H19         4.3954   -0.2404   -1.7630 H         1    UNL1     0.0654
     45 H20        -5.5025    1.8385    1.6866 H         1    UNL1     0.0654
     46 H21         5.4938    1.7722    1.7602 H         1    UNL1     0.0654
     47 H22        -4.3843   -0.3151   -1.7458 H         1    UNL1     0.0654
     48 H23         6.3942   -1.6076   -1.6052 H         1    UNL1     0.0627
     49 H24        -7.5043    0.4811    1.8861 H         1    UNL1     0.0627
     50 H25         7.4924    0.4045    1.9182 H         1    UNL1     0.0627
     51 H26        -6.3860   -1.6725   -1.5462 H         1    UNL1     0.0627
@<TRIPOS>UNITY_ATOM_ATTR
5 1
charge 1
6 1
charge 1
@<TRIPOS>BOND
     1     1    10    1
     2     1    12    1
     3     2    11    1
     4     2    13    1
     5     3    24    1
     6     4    25    1
     7     5    24    2
     8     6    25    2
     9     7     8    1
    10     7     9    1
    11     8    10    1
    12     9    11    1
    13    12    14   ar
    14    12    16   ar
    15    13    15   ar
    16    13    17   ar
    17    14    20   ar
    18    15    21   ar
    19    16    22   ar
    20    17    23   ar
    21    18    20   ar
    22    18    22   ar
    23    18    24    1
    24    19    21   ar
    25    19    23   ar
    26    19    25    1
    27     3    26    1
    28     3    27    1
    29     4    28    1
    30     4    29    1
    31     5    30    1
    32     5    31    1
    33     6    32    1
    34     6    33    1
    35     7    34    1
    36     7    35    1
    37     8    36    1
    38     8    37    1
    39     9    38    1
    40     9    39    1
    41    10    40    1
    42    10    41    1
    43    11    42    1
    44    11    43    1
    45    14    44    1
    46    15    45    1
    47    16    46    1
    48    17    47    1
    49    20    48    1
    50    21    49    1
    51    22    50    1
    52    23    51    1
