@<TRIPOS>MOLECULE
65130
 54 55 0 0 0
SMALL
GASTEIGER

@<TRIPOS>ATOM
      1 O1         -4.2073   -1.2178   -0.9306 O.3       1    UNL1    -0.4920
      2 O2          4.2074   -1.2174    0.9316 O.3       1    UNL1    -0.4920
      3 N3         -9.4631    1.4075    1.7325 N.pl3     1    UNL1    -0.2497
      4 N4          9.4632    1.4061   -1.7334 N.pl3     1    UNL1    -0.2497
      5 N5         -9.7553    1.9006   -0.5331 N.2       1    UNL1    -0.2884
      6 N6          9.7549    1.9017    0.5317 N.2       1    UNL1    -0.2884
      7 C7         -0.6772   -1.2399    0.3555 C.3       1    UNL1    -0.0499
      8 C8          0.6774   -1.2409   -0.3549 C.3       1    UNL1    -0.0499
      9 C9         -1.8300   -1.2574   -0.6460 C.3       1    UNL1    -0.0186
     10 C10         1.8301   -1.2574    0.6466 C.3       1    UNL1    -0.0186
     11 C11        -3.1817   -1.2145    0.0528 C.3       1    UNL1     0.0896
     12 C12         3.1819   -1.2154   -0.0519 C.3       1    UNL1     0.0896
     13 C13        -5.3810   -0.5905   -0.6023 C.ar      1    UNL1     0.1205
     14 C14         5.3810   -0.5901    0.6029 C.ar      1    UNL1     0.1205
     15 C15        -6.1584    0.0000   -1.5987 C.ar      1    UNL1    -0.0191
     16 C16         6.1582    0.0015    1.5988 C.ar      1    UNL1    -0.0191
     17 C17        -5.7991   -0.5445    0.7276 C.ar      1    UNL1    -0.0191
     18 C18         5.7994   -0.5455   -0.7271 C.ar      1    UNL1    -0.0191
     19 C19        -7.7719    0.6827    0.0649 C.ar      1    UNL1     0.0610
     20 C20         7.7718    0.6827   -0.0654 C.ar      1    UNL1     0.0610
     21 C21        -7.3539    0.6365   -1.2650 C.ar      1    UNL1    -0.0436
     22 C22         7.3535    0.6379    1.2645 C.ar      1    UNL1    -0.0436
     23 C23        -6.9944    0.0920    1.0612 C.ar      1    UNL1    -0.0436
     24 C24         6.9946    0.0909   -1.0611 C.ar      1    UNL1    -0.0436
     25 C25        -9.0186    1.3456    0.4130 C.2       1    UNL1     0.2662
     26 C26         9.0184    1.3455   -0.4140 C.2       1    UNL1     0.2662
     27 H1        -10.3103    1.8614    1.9458 H         1    UNL1     0.2883
     28 H2         -8.9299    0.9973    2.4513 H         1    UNL1     0.2883
     29 H3         10.3103    1.8600   -1.9469 H         1    UNL1     0.2883
     30 H4          8.9303    0.9951   -2.4519 H         1    UNL1     0.2883
     31 H5        -10.5996    2.3499   -0.2996 H         1    UNL1     0.3009
     32 H6         -9.4599    1.8649   -1.4716 H         1    UNL1     0.3009
     33 H7         10.5992    2.3509    0.2978 H         1    UNL1     0.3009
     34 H8          9.4594    1.8669    1.4701 H         1    UNL1     0.3009
     35 H9         -0.7534   -0.3597    0.9591 H         1    UNL1     0.0266
     36 H10        -0.7419   -2.1206    0.9598 H         1    UNL1     0.0266
     37 H11         0.7541   -0.3617   -0.9600 H         1    UNL1     0.0266
     38 H12         0.7416   -2.1226   -0.9577 H         1    UNL1     0.0266
     39 H13        -1.7692   -2.1523   -1.2295 H         1    UNL1     0.0298
     40 H14        -1.7469   -0.3896   -1.2664 H         1    UNL1     0.0298
     41 H15         1.7692   -2.1516    1.2310 H         1    UNL1     0.0298
     42 H16         1.7470   -0.3888    1.2659 H         1    UNL1     0.0298
     43 H17        -3.2869   -2.0715    0.6847 H         1    UNL1     0.0696
     44 H18        -3.2539   -0.3293    0.6496 H         1    UNL1     0.0696
     45 H19         3.2873   -2.0733   -0.6827 H         1    UNL1     0.0696
     46 H20         3.2542   -0.3310   -0.6498 H         1    UNL1     0.0696
     47 H21        -5.8491   -0.0340   -2.5827 H         1    UNL1     0.0654
     48 H22         5.8488   -0.0317    2.5828 H         1    UNL1     0.0654
     49 H23        -5.2240   -0.9814    1.4647 H         1    UNL1     0.0654
     50 H24         5.2245   -0.9834   -1.4639 H         1    UNL1     0.0654
     51 H25        -7.9291    1.0733   -2.0021 H         1    UNL1     0.0627
     52 H26         7.9285    1.0757    2.0012 H         1    UNL1     0.0627
     53 H27        -7.3037    0.1260    2.0452 H         1    UNL1     0.0627
     54 H28         7.3040    0.1240   -2.0451 H         1    UNL1     0.0627
@<TRIPOS>UNITY_ATOM_ATTR
5 1
charge 1
6 1
charge 1
@<TRIPOS>BOND
     1     1    11    1
     2     1    13    1
     3     2    12    1
     4     2    14    1
     5     3    25    1
     6     4    26    1
     7     5    25    2
     8     6    26    2
     9     7     8    1
    10     7     9    1
    11     8    10    1
    12     9    11    1
    13    10    12    1
    14    13    15   ar
    15    13    17   ar
    16    14    16   ar
    17    14    18   ar
    18    15    21   ar
    19    16    22   ar
    20    17    23   ar
    21    18    24   ar
    22    19    21   ar
    23    19    23   ar
    24    19    25    1
    25    20    22   ar
    26    20    24   ar
    27    20    26    1
    28     3    27    1
    29     3    28    1
    30     4    29    1
    31     4    30    1
    32     5    31    1
    33     5    32    1
    34     6    33    1
    35     6    34    1
    36     7    35    1
    37     7    36    1
    38     8    37    1
    39     8    38    1
    40     9    39    1
    41     9    40    1
    42    10    41    1
    43    10    42    1
    44    11    43    1
    45    11    44    1
    46    12    45    1
    47    12    46    1
    48    15    47    1
    49    16    48    1
    50    17    49    1
    51    18    50    1
    52    21    51    1
    53    22    52    1
    54    23    53    1
    55    24    54    1
