@<TRIPOS>MOLECULE
9831652
 85 89 0 0 0
SMALL
GASTEIGER

@<TRIPOS>ATOM
      1 CL1         2.3334   -1.3646   -0.8351 Cl        1    UNL1    -0.0811
      2 CL2         1.2678    3.6851    0.8620 Cl        1    UNL1    -0.0831
      3 S3         -0.4103   -2.3587    0.5143 S.O2      1    UNL1     0.0629
      4 O4          0.7732   -3.1791    0.3347 O.2       1    UNL1    -0.1528
      5 O5         -1.2988   -2.5850    1.6391 O.2       1    UNL1    -0.1528
      6 O6         -3.7080   -3.6256   -1.7271 O.2       1    UNL1    -0.2740
      7 O7          4.0012    1.4750    0.4023 O.3       1    UNL1    -0.4851
      8 O8         -7.0476    0.5550    1.9926 O.2       1    UNL1    -0.2702
      9 N9         -1.3149   -2.3446   -0.9258 N.3       1    UNL1    -0.1647
     10 N10        -4.4724   -2.6574    0.2471 N.am      1    UNL1    -0.3139
     11 N11        -6.4503   -0.7390    0.1623 N.am      1    UNL1    -0.3113
     12 N12         5.4308   -0.7701    1.1133 N.ar      1    UNL1    -0.2482
     13 N13        -2.1398    4.5157   -1.8559 N.pl3     1    UNL1    -0.2497
     14 N14        -1.9726    5.1182    0.3958 N.2       1    UNL1    -0.2884
     15 C15        -2.6377   -1.6606   -0.9136 C.3       1    UNL1     0.1078
     16 C16        -2.7078   -0.8715   -2.2163 C.3       1    UNL1    -0.0260
     17 C17        -1.7222   -1.5809   -3.1298 C.3       1    UNL1    -0.0366
     18 C18        -0.6031   -1.9678   -2.1777 C.3       1    UNL1     0.0214
     19 C19        -3.6448   -2.7602   -0.8579 C.2       1    UNL1     0.2319
     20 C20         0.1160   -0.6727    0.5782 C.ar      1    UNL1     0.1242
     21 C21        -5.5455   -3.5860    0.5201 C.3       1    UNL1     0.0131
     22 C22         1.3068   -0.2399   -0.0053 C.ar      1    UNL1     0.0750
     23 C23        -0.7064    0.2375    1.2423 C.ar      1    UNL1    -0.0325
     24 C24        -6.8684   -3.1546   -0.1092 C.3       1    UNL1    -0.0217
     25 C25         1.6751    1.1031    0.0751 C.ar      1    UNL1     0.0281
     26 C26        -0.3381    1.5805    1.3228 C.ar      1    UNL1    -0.0411
     27 C27         0.8527    2.0132    0.7392 C.ar      1    UNL1     0.0489
     28 C28        -7.3817   -1.8081    0.3968 C.3       1    UNL1     0.0133
     29 C29         2.9531    1.5756   -0.5501 C.3       1    UNL1     0.1175
     30 C30         5.2657    1.2698   -0.0871 C.ar      1    UNL1     0.1468
     31 C31        -6.3584    0.3722    0.9926 C.2       1    UNL1     0.2441
     32 C32         5.9799    0.1322    0.2783 C.ar      1    UNL1     0.1130
     33 C33         7.2769   -0.0355   -0.2504 C.ar      1    UNL1     0.0069
     34 C34         5.8042    2.2266   -0.9511 C.ar      1    UNL1    -0.0178
     35 C35        -5.3631    1.4025    0.5988 C.ar      1    UNL1     0.0367
     36 C36         7.9963   -1.1808    0.1172 C.ar      1    UNL1    -0.0395
     37 C37         7.8188    0.9266   -1.1195 C.ar      1    UNL1    -0.0521
     38 C38         7.0823    2.0551   -1.4680 C.ar      1    UNL1    -0.0576
     39 C39         6.1586   -1.8616    1.4438 C.ar      1    UNL1     0.0393
     40 C40         7.4333   -2.1121    0.9778 C.ar      1    UNL1    -0.0371
     41 C41         9.3782   -1.4509   -0.3893 C.3       1    UNL1    -0.0390
     42 C42        -5.0035    1.5487   -0.7411 C.ar      1    UNL1    -0.0488
     43 C43        -4.7879    2.2231    1.5690 C.ar      1    UNL1    -0.0488
     44 C44         5.5130   -2.8358    2.3718 C.3       1    UNL1    -0.0223
     45 C45        -4.0686    2.5157   -1.1105 C.ar      1    UNL1    -0.0463
     46 C46        -3.8530    3.1901    1.1994 C.ar      1    UNL1    -0.0463
     47 C47        -3.4934    3.3365   -0.1404 C.ar      1    UNL1     0.0608
     48 C48        -2.5192    4.3448   -0.5256 C.2       1    UNL1     0.2662
     49 H1         -4.3227   -1.9160    0.8773 H         1    UNL1     0.1487
     50 H2         -5.8530   -0.7959   -0.6182 H         1    UNL1     0.1490
     51 H3         -1.4783    5.2047   -2.0945 H         1    UNL1     0.2883
     52 H4         -2.5333    3.9474   -2.5569 H         1    UNL1     0.2883
     53 H5         -1.3128    5.8014    0.1368 H         1    UNL1     0.3009
     54 H6         -2.2251    5.0112    1.3413 H         1    UNL1     0.3009
     55 H7         -2.8032   -0.9892   -0.0971 H         1    UNL1     0.0575
     56 H8         -2.4170    0.1464   -2.0604 H         1    UNL1     0.0286
     57 H9         -3.6963   -0.8376   -2.6244 H         1    UNL1     0.0286
     58 H10        -1.3666   -0.9253   -3.8971 H         1    UNL1     0.0279
     59 H11        -2.1475   -2.4157   -3.6467 H         1    UNL1     0.0279
     60 H12        -0.0447   -2.7955   -2.5624 H         1    UNL1     0.0444
     61 H13         0.1047   -1.1791   -2.0294 H         1    UNL1     0.0444
     62 H14        -5.6767   -3.6565    1.5797 H         1    UNL1     0.0462
     63 H15        -5.2752   -4.5290    0.0928 H         1    UNL1     0.0462
     64 H16        -1.5873   -0.0827    1.6741 H         1    UNL1     0.0638
     65 H17        -7.6046   -3.8998    0.1089 H         1    UNL1     0.0295
     66 H18        -6.6934   -3.0467   -1.1593 H         1    UNL1     0.0295
     67 H19        -0.9465    2.2539    1.8141 H         1    UNL1     0.0633
     68 H20        -8.2987   -1.5802   -0.1052 H         1    UNL1     0.0462
     69 H21        -7.5212   -1.8907    1.4544 H         1    UNL1     0.0462
     70 H22         3.1821    0.9678   -1.4004 H         1    UNL1     0.0749
     71 H23         2.8467    2.5933   -0.8628 H         1    UNL1     0.0749
     72 H24         5.2525    3.0609   -1.2054 H         1    UNL1     0.0655
     73 H25         8.7685    0.7957   -1.5016 H         1    UNL1     0.0624
     74 H26         7.4831    2.7600   -2.1064 H         1    UNL1     0.0619
     75 H27         7.9487   -2.9608    1.2591 H         1    UNL1     0.0638
     76 H28         9.6822   -0.6558   -1.0376 H         1    UNL1     0.0278
     77 H29         9.3859   -2.3744   -0.9297 H         1    UNL1     0.0278
     78 H30        10.0547   -1.5156    0.4372 H         1    UNL1     0.0278
     79 H31        -5.4291    0.9415   -1.4589 H         1    UNL1     0.0625
     80 H32        -5.0540    2.1148    2.5602 H         1    UNL1     0.0625
     81 H33         4.5351   -2.4872    2.6310 H         1    UNL1     0.0292
     82 H34         6.1047   -2.9298    3.2583 H         1    UNL1     0.0292
     83 H35         5.4362   -3.7888    1.8915 H         1    UNL1     0.0292
     84 H36        -3.8024    2.6239   -2.1017 H         1    UNL1     0.0626
     85 H37        -3.4274    3.7972    1.9172 H         1    UNL1     0.0626
@<TRIPOS>UNITY_ATOM_ATTR
14 1
charge 1
@<TRIPOS>BOND
     1     1    22    1
     2     2    27    1
     3     3     4    2
     4     3     5    2
     5     3     9    1
     6     3    20    1
     7     6    19    2
     8     7    29    1
     9     7    30    1
    10     8    31    2
    11     9    15    1
    12     9    18    1
    13    10    19   am
    14    10    21    1
    15    11    28    1
    16    11    31   am
    17    12    32   ar
    18    12    39   ar
    19    13    48    1
    20    14    48    2
    21    15    16    1
    22    15    19    1
    23    16    17    1
    24    17    18    1
    25    20    22   ar
    26    20    23   ar
    27    21    24    1
    28    22    25   ar
    29    23    26   ar
    30    24    28    1
    31    25    27   ar
    32    25    29    1
    33    26    27   ar
    34    30    32   ar
    35    30    34   ar
    36    31    35    1
    37    32    33   ar
    38    33    36   ar
    39    33    37   ar
    40    34    38   ar
    41    35    42   ar
    42    35    43   ar
    43    36    40   ar
    44    36    41    1
    45    37    38   ar
    46    39    40   ar
    47    39    44    1
    48    42    45   ar
    49    43    46   ar
    50    45    47   ar
    51    46    47   ar
    52    47    48    1
    53    10    49    1
    54    11    50    1
    55    13    51    1
    56    13    52    1
    57    14    53    1
    58    14    54    1
    59    15    55    1
    60    16    56    1
    61    16    57    1
    62    17    58    1
    63    17    59    1
    64    18    60    1
    65    18    61    1
    66    21    62    1
    67    21    63    1
    68    23    64    1
    69    24    65    1
    70    24    66    1
    71    26    67    1
    72    28    68    1
    73    28    69    1
    74    29    70    1
    75    29    71    1
    76    34    72    1
    77    37    73    1
    78    38    74    1
    79    40    75    1
    80    41    76    1
    81    41    77    1
    82    41    78    1
    83    42    79    1
    84    43    80    1
    85    44    81    1
    86    44    82    1
    87    44    83    1
    88    45    84    1
    89    46    85    1
