@<TRIPOS>MOLECULE
9895193
 91 93 0 0 0
SMALL
GASTEIGER

@<TRIPOS>ATOM
      1 S1         -0.3853   -3.1162    0.5010 S.O2      1    UNL1     0.0596
      2 O2         -1.3999   -3.0400   -0.5327 O.2       1    UNL1    -0.1530
      3 O3         -0.0626   -4.3904    1.1142 O.2       1    UNL1    -0.1530
      4 O4         -1.0205    0.1557    3.5160 O.2       1    UNL1    -0.2738
      5 O5          3.1536    4.2893    0.0008 O.3       1    UNL1    -0.4505
      6 O6          1.6855    4.2745   -1.7515 O.2       1    UNL1    -0.2263
      7 N7         -0.3991    1.3647    1.6329 N.am      1    UNL1    -0.2972
      8 N8         -0.7415   -1.9859    1.7231 N.3       1    UNL1    -0.1777
      9 N9          1.4348    2.7572   -0.0097 N.am      1    UNL1    -0.2644
     10 N10        -6.7715    1.3436   -2.6054 N.pl3     1    UNL1    -0.2497
     11 N11        -5.6364   -0.6988   -2.6371 N.2       1    UNL1    -0.2884
     12 C12         1.1194   -2.4682   -0.1630 C.ar      1    UNL1     0.1121
     13 C13        -1.5641   -0.8015    1.4174 C.3       1    UNL1     0.1089
     14 C14         1.1874   -2.1003   -1.5069 C.ar      1    UNL1    -0.0179
     15 C15         2.2390   -2.3256    0.6565 C.ar      1    UNL1    -0.0179
     16 C16         0.7187    2.0842    2.2488 C.3       1    UNL1     0.0307
     17 C17        -0.8568    1.9287    0.3558 C.3       1    UNL1     0.0307
     18 C18        -0.9739    0.2778    2.2893 C.2       1    UNL1     0.2346
     19 C19         0.0080   -2.2364   -2.4143 C.3       1    UNL1    -0.0196
     20 C20         2.2044   -2.7108    2.0997 C.3       1    UNL1    -0.0196
     21 C21         1.8869    2.2100    1.2749 C.3       1    UNL1     0.0336
     22 C22         0.3068    2.0554   -0.6239 C.3       1    UNL1     0.0336
     23 C23         3.4946   -1.4476   -1.2112 C.ar      1    UNL1    -0.0441
     24 C24        -3.0214   -1.0399    1.7825 C.3       1    UNL1    -0.0021
     25 C25         2.3750   -1.5901   -2.0309 C.ar      1    UNL1    -0.0530
     26 C26         3.4266   -1.8154    0.1325 C.ar      1    UNL1    -0.0530
     27 C27         4.7650   -0.9030   -1.7716 C.3       1    UNL1    -0.0215
     28 C28        -0.4649   -0.8801   -2.9681 C.3       1    UNL1    -0.0586
     29 C29         0.2707   -3.2140   -3.5740 C.3       1    UNL1    -0.0586
     30 C30         3.1910   -3.8463    2.4273 C.3       1    UNL1    -0.0586
     31 C31         2.4555   -1.5122    3.0324 C.3       1    UNL1    -0.0586
     32 C32        -3.9416   -0.0230    1.1526 C.ar      1    UNL1    -0.0446
     33 C33         5.9221   -1.9175   -1.7012 C.3       1    UNL1    -0.0586
     34 C34         5.1866    0.4176   -1.0998 C.3       1    UNL1    -0.0586
     35 C35         2.0615    3.8135   -0.6752 C.2       1    UNL1     0.4029
     36 C36        -4.4926   -0.2653   -0.1057 C.ar      1    UNL1    -0.0438
     37 C37        -4.2416    1.1591    1.8295 C.ar      1    UNL1    -0.0585
     38 C38        -5.3437    0.6746   -0.6870 C.ar      1    UNL1     0.0611
     39 C39        -5.0927    2.0990    1.2482 C.ar      1    UNL1    -0.0607
     40 C40        -5.6437    1.8567   -0.0100 C.ar      1    UNL1    -0.0470
     41 C41         3.8553    5.3743   -0.6172 C.3       1    UNL1     0.0913
     42 C42        -5.9184    0.4233   -1.9991 C.2       1    UNL1     0.2662
     43 C43         5.0240    5.7693    0.2602 C.3       1    UNL1    -0.0305
     44 H1          0.1519   -1.6408    2.0739 H         1    UNL1     0.1489
     45 H2         -7.1494    1.1531   -3.4943 H         1    UNL1     0.2883
     46 H3         -6.9963    2.1842   -2.1448 H         1    UNL1     0.2883
     47 H4         -6.0244   -0.8708   -3.5254 H         1    UNL1     0.3009
     48 H5         -5.0383   -1.3629   -2.2242 H         1    UNL1     0.3009
     49 H6         -1.5554   -0.5535    0.3766 H         1    UNL1     0.0576
     50 H7          1.0428    1.5506    3.1178 H         1    UNL1     0.0480
     51 H8          0.3882    3.0663    2.5155 H         1    UNL1     0.0480
     52 H9         -1.2770    2.8972    0.5297 H         1    UNL1     0.0480
     53 H10        -1.5926    1.2759   -0.0654 H         1    UNL1     0.0480
     54 H11        -0.7750   -2.6407   -1.8075 H         1    UNL1     0.0344
     55 H12         1.2119   -3.0694    2.2764 H         1    UNL1     0.0344
     56 H13         2.6250    2.8616    1.6940 H         1    UNL1     0.0481
     57 H14         2.3017    1.2379    1.1078 H         1    UNL1     0.0481
     58 H15         0.6228    1.0771   -0.9204 H         1    UNL1     0.0481
     59 H16        -0.0222    2.6164   -1.4736 H         1    UNL1     0.0481
     60 H17        -3.1235   -0.9845    2.8462 H         1    UNL1     0.0334
     61 H18        -3.2982   -2.0056    1.4140 H         1    UNL1     0.0334
     62 H19         2.4254   -1.3180   -3.0251 H         1    UNL1     0.0624
     63 H20         4.2550   -1.7100    0.7389 H         1    UNL1     0.0624
     64 H21         4.5571   -0.7030   -2.8020 H         1    UNL1     0.0343
     65 H22         0.3044   -0.4566   -3.5794 H         1    UNL1     0.0235
     66 H23        -0.6794   -0.2182   -2.1552 H         1    UNL1     0.0235
     67 H24        -1.3484   -1.0228   -3.5546 H         1    UNL1     0.0235
     68 H25         1.0521   -2.8287   -4.1952 H         1    UNL1     0.0235
     69 H26        -0.6217   -3.3284   -4.1532 H         1    UNL1     0.0235
     70 H27         0.5643   -4.1644   -3.1798 H         1    UNL1     0.0235
     71 H28         4.1921   -3.5090    2.2574 H         1    UNL1     0.0235
     72 H29         2.9869   -4.6883    1.7994 H         1    UNL1     0.0235
     73 H30         3.0797   -4.1307    3.4528 H         1    UNL1     0.0235
     74 H31         3.4446   -1.1368    2.8723 H         1    UNL1     0.0235
     75 H32         2.3532   -1.8250    4.0505 H         1    UNL1     0.0235
     76 H33         1.7432   -0.7417    2.8227 H         1    UNL1     0.0235
     77 H34         6.1466   -2.1319   -0.6772 H         1    UNL1     0.0235
     78 H35         6.7872   -1.5054   -2.1773 H         1    UNL1     0.0235
     79 H36         5.6362   -2.8198   -2.2001 H         1    UNL1     0.0235
     80 H37         5.3997    0.2399   -0.0664 H         1    UNL1     0.0235
     81 H38         4.3922    1.1295   -1.1829 H         1    UNL1     0.0235
     82 H39         6.0608    0.8006   -1.5835 H         1    UNL1     0.0235
     83 H40        -4.2706   -1.1399   -0.6066 H         1    UNL1     0.0629
     84 H41        -3.8339    1.3383    2.7604 H         1    UNL1     0.0620
     85 H42        -5.3147    2.9736    1.7490 H         1    UNL1     0.0618
     86 H43        -6.2734    2.5521   -0.4401 H         1    UNL1     0.0626
     87 H44         3.1955    6.2087   -0.7328 H         1    UNL1     0.0695
     88 H45         4.2119    5.0724   -1.5798 H         1    UNL1     0.0695
     89 H46         4.6627    6.0703    1.2213 H         1    UNL1     0.0262
     90 H47         5.5516    6.5823   -0.1932 H         1    UNL1     0.0262
     91 H48         5.6838    4.9345    0.3726 H         1    UNL1     0.0262
@<TRIPOS>UNITY_ATOM_ATTR
11 1
charge 1
@<TRIPOS>BOND
     1     1     2    2
     2     1     3    2
     3     1     8    1
     4     1    12    1
     5     4    18    2
     6     5    35    1
     7     5    41    1
     8     6    35    2
     9     7    16    1
    10     7    17    1
    11     7    18   am
    12     8    13    1
    13     9    21    1
    14     9    22    1
    15     9    35   am
    16    10    42    1
    17    11    42    2
    18    12    14   ar
    19    12    15   ar
    20    13    18    1
    21    13    24    1
    22    14    19    1
    23    14    25   ar
    24    15    20    1
    25    15    26   ar
    26    16    21    1
    27    17    22    1
    28    19    28    1
    29    19    29    1
    30    20    30    1
    31    20    31    1
    32    23    25   ar
    33    23    26   ar
    34    23    27    1
    35    24    32    1
    36    27    33    1
    37    27    34    1
    38    32    36   ar
    39    32    37   ar
    40    36    38   ar
    41    37    39   ar
    42    38    40   ar
    43    38    42    1
    44    39    40   ar
    45    41    43    1
    46     8    44    1
    47    10    45    1
    48    10    46    1
    49    11    47    1
    50    11    48    1
    51    13    49    1
    52    16    50    1
    53    16    51    1
    54    17    52    1
    55    17    53    1
    56    19    54    1
    57    20    55    1
    58    21    56    1
    59    21    57    1
    60    22    58    1
    61    22    59    1
    62    24    60    1
    63    24    61    1
    64    25    62    1
    65    26    63    1
    66    27    64    1
    67    28    65    1
    68    28    66    1
    69    28    67    1
    70    29    68    1
    71    29    69    1
    72    29    70    1
    73    30    71    1
    74    30    72    1
    75    30    73    1
    76    31    74    1
    77    31    75    1
    78    31    76    1
    79    33    77    1
    80    33    78    1
    81    33    79    1
    82    34    80    1
    83    34    81    1
    84    34    82    1
    85    36    83    1
    86    37    84    1
    87    39    85    1
    88    40    86    1
    89    41    87    1
    90    41    88    1
    91    43    89    1
    92    43    90    1
    93    43    91    1
