@<TRIPOS>MOLECULE
5496659
 60 62 0 0 0
SMALL
GASTEIGER

@<TRIPOS>ATOM
      1 O1          1.5973    0.1381   -1.7762 O.3       1    UNL1    -0.4677
      2 O2          3.6169    0.9142   -2.5746 O.2       1    UNL1    -0.2505
      3 O3         -0.7267    3.5612    1.0732 O.2       1    UNL1    -0.2702
      4 O4         -8.9842   -2.7421    0.0343 O.co2     1    UNL1    -0.6198
      5 N5          0.3349    2.0036   -0.2772 N.am      1    UNL1    -0.3080
      6 N6          7.3618   -3.5677    0.0992 N.pl3     1    UNL1    -0.2497
      7 N7          5.2494   -3.5504   -0.9003 N.2       1    UNL1    -0.2884
      8 N8         -7.9117   -2.0570    0.0843 N.ar      1    UNL1    -0.1774
      9 C9          2.7942    1.6427   -0.3990 C.3       1    UNL1     0.0784
     10 C10         1.6264    2.6506   -0.2966 C.3       1    UNL1     0.0338
     11 C11         2.8131    0.6574    0.7880 C.3       1    UNL1    -0.0130
     12 C12         1.6705    3.7035   -1.4028 C.3       1    UNL1    -0.0458
     13 C13         4.1728    0.0372    1.0119 C.ar      1    UNL1    -0.0457
     14 C14         2.7472    0.8711   -1.7138 C.2       1    UNL1     0.3120
     15 C15         4.5107   -1.1536    0.3691 C.ar      1    UNL1    -0.0438
     16 C16        -0.7465    2.5233    0.4170 C.2       1    UNL1     0.2443
     17 C17         5.0890    0.6545    1.8636 C.ar      1    UNL1    -0.0585
     18 C18         5.7649   -1.7272    0.5779 C.ar      1    UNL1     0.0611
     19 C19        -1.9980    1.7247    0.3594 C.ar      1    UNL1     0.0367
     20 C20         6.3432    0.0808    2.0724 C.ar      1    UNL1    -0.0607
     21 C21         6.6812   -1.1100    1.4296 C.ar      1    UNL1    -0.0470
     22 C22        -2.9242    1.8029    1.3995 C.ar      1    UNL1    -0.0491
     23 C23        -2.2466    0.8966   -0.7352 C.ar      1    UNL1    -0.0491
     24 C24        -4.3476    0.2248    0.2502 C.ar      1    UNL1    -0.0175
     25 C25         6.1173   -2.9697   -0.0907 C.2       1    UNL1     0.2662
     26 C26         1.4249   -0.6368   -2.9667 C.3       1    UNL1     0.0817
     27 C27        -4.0990    1.0529    1.3448 C.ar      1    UNL1    -0.0533
     28 C28        -3.4213    0.1466   -0.7897 C.ar      1    UNL1    -0.0533
     29 C29        -5.5653   -0.5547    0.1932 C.ar      1    UNL1    -0.0066
     30 C30        -6.1657   -0.9937    1.3681 C.ar      1    UNL1     0.0111
     31 C31        -6.1360   -0.8657   -1.0360 C.ar      1    UNL1     0.0111
     32 C32        -7.3360   -1.7424    1.3002 C.ar      1    UNL1     0.1834
     33 C33        -7.3068   -1.6158   -1.0768 C.ar      1    UNL1     0.1834
     34 H1          0.2185    1.1625   -0.7754 H         1    UNL1     0.1493
     35 H2          7.5794   -4.4090   -0.3635 H         1    UNL1     0.2883
     36 H3          8.0233   -3.1488    0.6960 H         1    UNL1     0.2883
     37 H4          5.4859   -4.3915   -1.3539 H         1    UNL1     0.3009
     38 H5          4.3662   -3.1419   -1.0499 H         1    UNL1     0.3009
     39 H6          3.6965    2.2170   -0.3682 H         1    UNL1     0.0435
     40 H7          1.7590    3.1468    0.6421 H         1    UNL1     0.0504
     41 H8          2.1083   -0.1242    0.5949 H         1    UNL1     0.0322
     42 H9          2.5615    1.2095    1.6693 H         1    UNL1     0.0322
     43 H10         1.5396    3.2286   -2.3527 H         1    UNL1     0.0248
     44 H11         2.6161    4.2038   -1.3815 H         1    UNL1     0.0248
     45 H12         0.8867    4.4155   -1.2490 H         1    UNL1     0.0248
     46 H13         3.8328   -1.6103   -0.2610 H         1    UNL1     0.0629
     47 H14         4.8389    1.5356    2.3392 H         1    UNL1     0.0620
     48 H15         7.0210    0.5374    2.7025 H         1    UNL1     0.0618
     49 H16         7.6091   -1.5344    1.5841 H         1    UNL1     0.0626
     50 H17        -2.7403    2.4156    2.2093 H         1    UNL1     0.0625
     51 H18        -1.5614    0.8389   -1.5047 H         1    UNL1     0.0625
     52 H19         0.4985   -1.1696   -2.9144 H         1    UNL1     0.0661
     53 H20         2.2321   -1.3331   -3.0591 H         1    UNL1     0.0661
     54 H21         1.4152    0.0129   -3.8169 H         1    UNL1     0.0661
     55 H22        -4.7843    1.1107    2.1142 H         1    UNL1     0.0624
     56 H23        -3.6051   -0.4662   -1.5995 H         1    UNL1     0.0624
     57 H24        -5.7464   -0.7658    2.2831 H         1    UNL1     0.0683
     58 H25        -5.6945   -0.5426   -1.9111 H         1    UNL1     0.0683
     59 H26        -7.7815   -2.0682    2.1722 H         1    UNL1     0.1389
     60 H27        -7.7304   -1.8464   -1.9892 H         1    UNL1     0.1389
@<TRIPOS>UNITY_ATOM_ATTR
4 1
charge -1
7 1
charge 1
8 1
charge 1
@<TRIPOS>BOND
     1     1    14    1
     2     1    26    1
     3     2    14    2
     4     3    16    2
     5     4     8    1
     6     5    10    1
     7     5    16   am
     8     6    25    1
     9     7    25    2
    10     8    32   ar
    11     8    33   ar
    12     9    10    1
    13     9    11    1
    14     9    14    1
    15    10    12    1
    16    11    13    1
    17    13    15   ar
    18    13    17   ar
    19    15    18   ar
    20    16    19    1
    21    17    20   ar
    22    18    21   ar
    23    18    25    1
    24    19    22   ar
    25    19    23   ar
    26    20    21   ar
    27    22    27   ar
    28    23    28   ar
    29    24    27   ar
    30    24    28   ar
    31    24    29    1
    32    29    30   ar
    33    29    31   ar
    34    30    32   ar
    35    31    33   ar
    36     5    34    1
    37     6    35    1
    38     6    36    1
    39     7    37    1
    40     7    38    1
    41     9    39    1
    42    10    40    1
    43    11    41    1
    44    11    42    1
    45    12    43    1
    46    12    44    1
    47    12    45    1
    48    15    46    1
    49    17    47    1
    50    20    48    1
    51    21    49    1
    52    22    50    1
    53    23    51    1
    54    26    52    1
    55    26    53    1
    56    26    54    1
    57    27    55    1
    58    28    56    1
    59    30    57    1
    60    31    58    1
    61    32    59    1
    62    33    60    1
