@<TRIPOS>MOLECULE
66000
 48 50 0 0 0
SMALL
GASTEIGER

@<TRIPOS>ATOM
      1 O1          1.6725    1.8320   -1.0859 O.3       1    UNL1    -0.4901
      2 O2          4.6479    0.6596    2.6849 O.2       1    UNL1    -0.2755
      3 O3          8.1920   -2.1414   -0.0102 O.co2     1    UNL1    -0.5498
      4 O4          6.1195   -2.8124   -0.6699 O.co2     1    UNL1    -0.5498
      5 N5          3.9413    1.6489    0.6851 N.am      1    UNL1    -0.3090
      6 N6         -8.2718   -1.8718   -0.3982 N.pl3     1    UNL1    -0.2497
      7 N7         -8.2248   -0.6826    1.6130 N.2       1    UNL1    -0.2884
      8 C8          5.0411   -0.4103    0.5230 C.3       1    UNL1     0.0424
      9 C9          3.9855    1.3543   -0.7265 C.3       1    UNL1     0.0578
     10 C10         5.1109    0.3290   -0.8179 C.3       1    UNL1    -0.0199
     11 C11         4.5519    0.6719    1.4674 C.2       1    UNL1     0.2168
     12 C12         6.3695   -1.0063    0.9474 C.3       1    UNL1    -0.0020
     13 C13         2.6499    0.8151   -1.2208 C.3       1    UNL1     0.1079
     14 C14         6.8355   -2.0841    0.0008 C.2       1    UNL1     0.0425
     15 C15         0.3802    1.4276   -0.8617 C.ar      1    UNL1     0.1206
     16 C16        -0.0557    0.2105   -1.3701 C.ar      1    UNL1    -0.0194
     17 C17        -0.4761    2.2411   -0.1304 C.ar      1    UNL1    -0.0194
     18 C18        -2.2365    0.6102   -0.4100 C.ar      1    UNL1    -0.0177
     19 C19        -1.3694   -0.1999   -1.1432 C.ar      1    UNL1    -0.0506
     20 C20        -1.7898    1.8307    0.0963 C.ar      1    UNL1    -0.0506
     21 C21        -3.5991    0.1851   -0.1754 C.ar      1    UNL1    -0.0178
     22 C22        -4.2483   -0.6243   -1.1080 C.ar      1    UNL1    -0.0532
     23 C23        -4.2642    0.5829    0.9846 C.ar      1    UNL1    -0.0532
     24 C24        -6.2264   -0.6374    0.2791 C.ar      1    UNL1     0.0608
     25 C25        -5.5616   -1.0354   -0.8807 C.ar      1    UNL1    -0.0465
     26 C26        -5.5776    0.1716    1.2119 C.ar      1    UNL1    -0.0465
     27 C27        -7.5962   -1.0646    0.5153 C.2       1    UNL1     0.2662
     28 H1          3.5222    2.4582    1.0574 H         1    UNL1     0.1491
     29 H2         -9.1991   -2.1493   -0.2182 H         1    UNL1     0.2883
     30 H3         -7.8218   -2.1644   -1.2235 H         1    UNL1     0.2883
     31 H4         -9.1522   -0.9707    1.7748 H         1    UNL1     0.3009
     32 H5         -7.7658   -0.1098    2.2691 H         1    UNL1     0.3009
     33 H6          4.4013   -1.2674    0.4937 H         1    UNL1     0.0398
     34 H7          4.1622    2.2097   -1.3445 H         1    UNL1     0.0532
     35 H8          4.9480   -0.3443   -1.6334 H         1    UNL1     0.0291
     36 H9          6.0662    0.7775   -0.9941 H         1    UNL1     0.0291
     37 H10         6.2619   -1.4283    1.9248 H         1    UNL1     0.0332
     38 H11         7.0991   -0.2237    0.9409 H         1    UNL1     0.0332
     39 H12         2.7344    0.5308   -2.2489 H         1    UNL1     0.0715
     40 H13         2.3669   -0.0417   -0.6458 H         1    UNL1     0.0715
     41 H14         0.5884   -0.3863   -1.9123 H         1    UNL1     0.0654
     42 H15        -0.1423    3.1435    0.2428 H         1    UNL1     0.0654
     43 H16        -1.6998   -1.1030   -1.5178 H         1    UNL1     0.0625
     44 H17        -2.4313    2.4301    0.6387 H         1    UNL1     0.0625
     45 H18        -3.7567   -0.9189   -1.9662 H         1    UNL1     0.0624
     46 H19        -3.7844    1.1816    1.6748 H         1    UNL1     0.0624
     47 H20        -6.0415   -1.6342   -1.5708 H         1    UNL1     0.0626
     48 H21        -6.0692    0.4659    2.0702 H         1    UNL1     0.0626
@<TRIPOS>UNITY_ATOM_ATTR
3 1
charge -1
7 1
charge 1
@<TRIPOS>BOND
     1     1    13    1
     2     1    15    1
     3     2    11    2
     4     3    14   ar
     5     4    14   ar
     6     5     9    1
     7     5    11   am
     8     6    27    1
     9     7    27    2
    10     8    10    1
    11     8    11    1
    12     8    12    1
    13     9    10    1
    14     9    13    1
    15    12    14    1
    16    15    16   ar
    17    15    17   ar
    18    16    19   ar
    19    17    20   ar
    20    18    19   ar
    21    18    20   ar
    22    18    21    1
    23    21    22   ar
    24    21    23   ar
    25    22    25   ar
    26    23    26   ar
    27    24    25   ar
    28    24    26   ar
    29    24    27    1
    30     5    28    1
    31     6    29    1
    32     6    30    1
    33     7    31    1
    34     7    32    1
    35     8    33    1
    36     9    34    1
    37    10    35    1
    38    10    36    1
    39    12    37    1
    40    12    38    1
    41    13    39    1
    42    13    40    1
    43    16    41    1
    44    17    42    1
    45    19    43    1
    46    20    44    1
    47    22    45    1
    48    23    46    1
    49    25    47    1
    50    26    48    1
