@<TRIPOS>MOLECULE
4413
 45 47 0 0 0
SMALL
GASTEIGER

@<TRIPOS>ATOM
      1 O1          0.5434    0.1596    0.4734 O.3       1    UNL1    -0.4223
      2 O2          0.6532    0.0837   -1.8534 O.2       1    UNL1    -0.2445
      3 N3         -8.1471   -1.0575   -0.0121 N.pl3     1    UNL1    -0.2497
      4 N4         -7.7521    1.2447   -0.0812 N.2       1    UNL1    -0.2884
      5 N5          6.7384   -0.7398   -0.0717 N.pl3     1    UNL1    -0.2464
      6 N6          8.7882    0.0312    0.7405 N.pl3     1    UNL1    -0.2915
      7 N7          6.9671    1.3624    1.0857 N.pl3     1    UNL1    -0.2915
      8 C8         -3.5767    0.7399    0.1976 C.ar      1    UNL1    -0.0169
      9 C9         -3.0507   -0.5715    0.2804 C.ar      1    UNL1    -0.0144
     10 C10        -4.9669    0.9177    0.1057 C.ar      1    UNL1    -0.0393
     11 C11        -1.6606   -0.7494    0.3721 C.ar      1    UNL1    -0.0115
     12 C12        -5.8261   -0.1814    0.0957 C.ar      1    UNL1     0.0614
     13 C13        -3.9303   -1.6662    0.2689 C.ar      1    UNL1    -0.0531
     14 C14        -2.6971    1.8345    0.2090 C.ar      1    UNL1    -0.0505
     15 C15        -0.8015    0.3498    0.3822 C.ar      1    UNL1     0.1326
     16 C16        -5.3087   -1.4709    0.1772 C.ar      1    UNL1    -0.0464
     17 C17        -1.3188    1.6392    0.3008 C.ar      1    UNL1    -0.0186
     18 C18        -7.2633    0.0199    0.0002 C.2       1    UNL1     0.2662
     19 C19         2.6512   -0.1734   -0.5776 C.ar      1    UNL1     0.0596
     20 C20         1.1911    0.0307   -0.7575 C.2       1    UNL1     0.3444
     21 C21         3.5137    0.2931   -1.5482 C.ar      1    UNL1    -0.0445
     22 C22         3.0993   -0.8211    0.5552 C.ar      1    UNL1    -0.0445
     23 C23         5.3637   -0.5485   -0.2418 C.ar      1    UNL1     0.0999
     24 C24         4.8851    0.1034   -1.3783 C.ar      1    UNL1    -0.0224
     25 C25         4.4708   -1.0106    0.7250 C.ar      1    UNL1    -0.0224
     26 C26         7.4345    0.1806    0.5524 C.cat     1    UNL1     0.3458
     27 H1         -9.1164   -0.8983   -0.0774 H         1    UNL1     0.2883
     28 H2         -7.8021   -1.9778    0.0445 H         1    UNL1     0.2883
     29 H3         -8.7246    1.3833   -0.1459 H         1    UNL1     0.3009
     30 H4         -7.1438    2.0188   -0.0771 H         1    UNL1     0.3009
     31 H5          7.1767   -1.5519   -0.4147 H         1    UNL1     0.2647
     32 H6          9.2460   -0.7733    0.4050 H         1    UNL1     0.2546
     33 H7          9.2998    0.7287    1.2107 H         1    UNL1     0.2546
     34 H8          6.0116    1.5894    1.0173 H         1    UNL1     0.2546
     35 H9          7.5887    1.9795    1.5351 H         1    UNL1     0.2546
     36 H10        -5.3568    1.8713    0.0449 H         1    UNL1     0.0632
     37 H11        -1.2706   -1.7030    0.4326 H         1    UNL1     0.0660
     38 H12        -3.5532   -2.6250    0.3289 H         1    UNL1     0.0624
     39 H13        -3.0741    2.7933    0.1489 H         1    UNL1     0.0625
     40 H14        -5.9452   -2.2832    0.1698 H         1    UNL1     0.0626
     41 H15        -0.6823    2.4515    0.3084 H         1    UNL1     0.0654
     42 H16         3.1503    0.7743   -2.3857 H         1    UNL1     0.0627
     43 H17         2.4310   -1.1597    1.2650 H         1    UNL1     0.0627
     44 H18         5.5458    0.4454   -2.0935 H         1    UNL1     0.0652
     45 H19         4.8249   -1.4927    1.5660 H         1    UNL1     0.0652
@<TRIPOS>UNITY_ATOM_ATTR
4 1
charge 1
5 1
charge 1
@<TRIPOS>BOND
     1     1    15    1
     2     1    20    1
     3     2    20    2
     4     3    18    1
     5     4    18    2
     6     5    23    1
     7     5    26    2
     8     6    26    1
     9     7    26    1
    10     8     9   ar
    11     8    10   ar
    12     8    14   ar
    13     9    11   ar
    14     9    13   ar
    15    10    12   ar
    16    11    15   ar
    17    12    16   ar
    18    12    18    1
    19    13    16   ar
    20    14    17   ar
    21    15    17   ar
    22    19    20    1
    23    19    21   ar
    24    19    22   ar
    25    21    24   ar
    26    22    25   ar
    27    23    24   ar
    28    23    25   ar
    29     3    27    1
    30     3    28    1
    31     4    29    1
    32     4    30    1
    33     5    31    1
    34     6    32    1
    35     6    33    1
    36     7    34    1
    37     7    35    1
    38    10    36    1
    39    11    37    1
    40    13    38    1
    41    14    39    1
    42    16    40    1
    43    17    41    1
    44    21    42    1
    45    22    43    1
    46    24    44    1
    47    25    45    1
