@<TRIPOS>MOLECULE
86566678
 65 68 0 0 0
SMALL
GASTEIGER

@<TRIPOS>ATOM
      1 O1         -2.8950   -3.9416   -1.9721 O.2       1    UNL1    -0.2685
      2 O2          5.9487   -1.8150    0.3203 O.3       1    UNL1    -0.4945
      3 O3         -0.4211   -0.8906    2.5285 O.co2     1    UNL1    -0.5430
      4 O4          1.8243   -1.1391    2.2777 O.co2     1    UNL1    -0.5430
      5 O5          1.2142    1.5192   -2.1717 O.2       1    UNL1    -0.2698
      6 N6         -3.2357   -3.5382    0.2858 N.am      1    UNL1    -0.3098
      7 N7         -0.8473   -2.3356    0.3965 N.ar      1    UNL1    -0.2403
      8 N8          0.7745    1.8525    0.1091 N.am      1    UNL1    -0.2815
      9 N9         -4.2975    5.7046   -1.1661 N.pl3     1    UNL1    -0.2497
     10 N10        -4.2668    5.6866    1.1704 N.2       1    UNL1    -0.2884
     11 C11        -5.6285   -3.2111    0.1027 C.3       1    UNL1    -0.0254
     12 C12        -6.0969   -2.2717    1.1793 C.3       1    UNL1    -0.0485
     13 C13        -6.9804   -3.4028    0.7327 C.3       1    UNL1    -0.0485
     14 C14        -4.5280   -4.1786    0.3776 C.3       1    UNL1     0.0148
     15 C15        -2.4915   -3.4592   -0.8981 C.2       1    UNL1     0.2624
     16 C16        -1.1974   -2.8037   -0.8224 C.ar      1    UNL1     0.1261
     17 C17        -0.4060   -2.6888   -1.9539 C.ar      1    UNL1    -0.0306
     18 C18         1.2191   -1.5578   -0.5882 C.ar      1    UNL1     0.0101
     19 C19         0.8239   -2.0527   -1.8261 C.ar      1    UNL1    -0.0498
     20 C20         0.3548   -1.7231    0.4821 C.ar      1    UNL1     0.0947
     21 C21         2.5010   -0.8938   -0.4530 C.ar      1    UNL1    -0.0002
     22 C22         2.6250    0.4830   -0.6397 C.ar      1    UNL1     0.0456
     23 C23         3.6226   -1.6578   -0.1304 C.ar      1    UNL1    -0.0109
     24 C24         3.8706    1.0958   -0.5034 C.ar      1    UNL1    -0.0384
     25 C25         0.6844   -1.2375    1.8160 C.2       1    UNL1     0.0905
     26 C26         4.8681   -1.0449    0.0061 C.ar      1    UNL1     0.1278
     27 C27         4.9923    0.3319   -0.1804 C.ar      1    UNL1     0.0169
     28 C28         1.4780    1.3185   -0.9773 C.2       1    UNL1     0.2489
     29 C29         6.2831    0.9940   -0.0455 C.2       1    UNL1    -0.0582
     30 C30        -0.3535    2.7092    0.0899 C.ar      1    UNL1     0.0337
     31 C31        -0.8961    3.1216   -1.1272 C.ar      1    UNL1    -0.0397
     32 C32        -0.9216    3.1404    1.2886 C.ar      1    UNL1    -0.0397
     33 C33         6.2353   -1.9923    1.7057 C.3       1    UNL1     0.0788
     34 C34        -2.5750    4.3963    0.0534 C.ar      1    UNL1     0.0609
     35 C35        -2.0070    3.9650   -1.1454 C.ar      1    UNL1    -0.0453
     36 C36        -2.0323    3.9839    1.2705 C.ar      1    UNL1    -0.0453
     37 C37         6.4911    2.2575    0.3742 C.2       1    UNL1    -0.0980
     38 C38        -3.7331    5.2758    0.0338 C.2       1    UNL1     0.2662
     39 H1         -2.8575   -3.1352    1.1005 H         1    UNL1     0.1491
     40 H2          1.1064    1.6002    1.0009 H         1    UNL1     0.1551
     41 H3         -5.0815    6.3000   -1.1563 H         1    UNL1     0.2883
     42 H4         -3.9122    5.4121   -2.0236 H         1    UNL1     0.2883
     43 H5         -5.0508    6.2820    1.1593 H         1    UNL1     0.3009
     44 H6         -3.8805    5.3973    2.0285 H         1    UNL1     0.3009
     45 H7         -5.2699   -3.0960   -0.8988 H         1    UNL1     0.0316
     46 H8         -6.3546   -1.2626    0.9339 H         1    UNL1     0.0269
     47 H9         -5.7056   -1.9432    2.1195 H         1    UNL1     0.0269
     48 H10        -7.1545   -4.2345    1.3830 H         1    UNL1     0.0269
     49 H11        -7.9822   -3.4805    0.3651 H         1    UNL1     0.0269
     50 H12        -4.6512   -4.5769    1.3630 H         1    UNL1     0.0465
     51 H13        -4.5724   -4.9595   -0.3526 H         1    UNL1     0.0465
     52 H14        -0.7195   -3.0635   -2.8629 H         1    UNL1     0.0641
     53 H15         1.4409   -1.9483   -2.6467 H         1    UNL1     0.0625
     54 H16         3.5309   -2.6765    0.0073 H         1    UNL1     0.0661
     55 H17         3.9624    2.1144   -0.6415 H         1    UNL1     0.0632
     56 H18         7.1186    0.4422   -0.2954 H         1    UNL1     0.0619
     57 H19        -0.4757    2.8027   -2.0141 H         1    UNL1     0.0636
     58 H20        -0.5201    2.8353    2.1890 H         1    UNL1     0.0636
     59 H21         7.1008   -2.6120    1.8144 H         1    UNL1     0.0660
     60 H22         5.4003   -2.4583    2.1859 H         1    UNL1     0.0660
     61 H23         6.4199   -1.0396    2.1565 H         1    UNL1     0.0660
     62 H24        -2.4087    4.2699   -2.0458 H         1    UNL1     0.0627
     63 H25        -2.4526    4.3029    2.1574 H         1    UNL1     0.0627
     64 H26         5.6898    2.8526    0.6366 H         1    UNL1     0.0535
     65 H27         7.4517    2.6301    0.4333 H         1    UNL1     0.0535
@<TRIPOS>UNITY_ATOM_ATTR
3 1
charge -1
10 1
charge 1
@<TRIPOS>BOND
     1     1    15    2
     2     2    26    1
     3     2    33    1
     4     3    25   ar
     5     4    25   ar
     6     5    28    2
     7     6    14    1
     8     6    15   am
     9     7    16   ar
    10     7    20   ar
    11     8    28   am
    12     8    30    1
    13     9    38    1
    14    10    38    2
    15    11    12    1
    16    11    13    1
    17    11    14    1
    18    12    13    1
    19    15    16    1
    20    16    17   ar
    21    17    19   ar
    22    18    19   ar
    23    18    20   ar
    24    18    21    1
    25    20    25    1
    26    21    22   ar
    27    21    23   ar
    28    22    24   ar
    29    22    28    1
    30    23    26   ar
    31    24    27   ar
    32    26    27   ar
    33    27    29    1
    34    29    37    2
    35    30    31   ar
    36    30    32   ar
    37    31    35   ar
    38    32    36   ar
    39    34    35   ar
    40    34    36   ar
    41    34    38    1
    42     6    39    1
    43     8    40    1
    44     9    41    1
    45     9    42    1
    46    10    43    1
    47    10    44    1
    48    11    45    1
    49    12    46    1
    50    12    47    1
    51    13    48    1
    52    13    49    1
    53    14    50    1
    54    14    51    1
    55    17    52    1
    56    19    53    1
    57    23    54    1
    58    24    55    1
    59    29    56    1
    60    31    57    1
    61    32    58    1
    62    33    59    1
    63    33    60    1
    64    33    61    1
    65    35    62    1
    66    36    63    1
    67    37    64    1
    68    37    65    1
