@<TRIPOS>MOLECULE
2536
 52 53 0 0 0
SMALL
GASTEIGER

@<TRIPOS>ATOM
      1 O1         -5.7363    0.4781   -0.1121 O.3       1    UNL1    -0.4550
      2 O2          1.9661    1.0985    0.1168 O.3       1    UNL1    -0.4223
      3 O3         -3.8411   -0.8032    0.1835 O.2       1    UNL1    -0.2505
      4 O4         -8.2885    0.9074   -0.2899 O.2       1    UNL1    -0.2719
      5 O5          1.7100   -1.1992    0.4148 O.2       1    UNL1    -0.2445
      6 N6         -8.9487   -1.3103   -0.0968 N.am      1    UNL1    -0.3048
      7 N7          8.0836   -0.4047    0.5275 N.pl3     1    UNL1    -0.2464
      8 N8          8.2454   -0.7424   -1.8539 N.pl3     1    UNL1    -0.2915
      9 N9         10.1308   -0.6390   -0.5722 N.pl3     1    UNL1    -0.2915
     10 C10        -2.1636    1.4673   -0.0766 C.ar      1    UNL1    -0.0365
     11 C11        -3.6629    1.6008   -0.1474 C.3       1    UNL1     0.0701
     12 C12        -1.4274    1.2515   -1.2416 C.ar      1    UNL1    -0.0546
     13 C13        -1.5119    1.5592    1.1533 C.ar      1    UNL1    -0.0546
     14 C14         0.6120    1.2197    0.0531 C.ar      1    UNL1     0.1320
     15 C15        -0.0397    1.1277   -1.1767 C.ar      1    UNL1    -0.0189
     16 C16        -0.1242    1.4354    1.2182 C.ar      1    UNL1    -0.0189
     17 C17        -4.3798    0.2794   -0.0031 C.2       1    UNL1     0.3119
     18 C18        -6.5468   -0.6717    0.0037 C.3       1    UNL1     0.1682
     19 C19         3.9012   -0.2614    0.3598 C.ar      1    UNL1     0.0596
     20 C20        -8.0038   -0.2845   -0.1383 C.2       1    UNL1     0.2528
     21 C21         2.4184   -0.2103    0.3006 C.2       1    UNL1     0.3444
     22 C22         4.6454    0.9102    0.2212 C.ar      1    UNL1    -0.0445
     23 C23         4.5500   -1.4809    0.5541 C.ar      1    UNL1    -0.0445
     24 C24         6.6870   -0.3570    0.4714 C.ar      1    UNL1     0.0999
     25 C25         6.0382    0.8624    0.2771 C.ar      1    UNL1    -0.0224
     26 C26         5.9428   -1.5287    0.6098 C.ar      1    UNL1    -0.0224
     27 C27        -8.6499   -2.7309    0.0657 C.3       1    UNL1     0.0029
     28 C28       -10.3632   -0.9874   -0.2381 C.3       1    UNL1     0.0029
     29 C29         8.7568   -0.5861   -0.5837 C.cat     1    UNL1     0.3458
     30 H1          8.5537   -0.3038    1.3866 H         1    UNL1     0.2647
     31 H2          7.2717   -0.7238   -1.9983 H         1    UNL1     0.2546
     32 H3          8.8538   -0.8726   -2.6169 H         1    UNL1     0.2546
     33 H4         10.6201   -0.5404    0.2764 H         1    UNL1     0.2546
     34 H5         10.6252   -0.7754   -1.4125 H         1    UNL1     0.2546
     35 H6         -3.9230    2.0285   -1.0931 H         1    UNL1     0.0426
     36 H7         -3.9681    2.2217    0.6689 H         1    UNL1     0.0426
     37 H8         -1.9095    1.1834   -2.1515 H         1    UNL1     0.0622
     38 H9         -2.0566    1.7188    2.0152 H         1    UNL1     0.0622
     39 H10         0.5050    0.9680   -2.0386 H         1    UNL1     0.0654
     40 H11         0.3579    1.5034    2.1281 H         1    UNL1     0.0654
     41 H12        -6.3901   -1.1225    0.9614 H         1    UNL1     0.0796
     42 H13        -6.2879   -1.3672   -0.7671 H         1    UNL1     0.0796
     43 H14         4.1654    1.8124    0.0773 H         1    UNL1     0.0627
     44 H15         3.9994   -2.3477    0.6566 H         1    UNL1     0.0627
     45 H16         6.5888    1.7292    0.1747 H         1    UNL1     0.0652
     46 H17         6.4228   -2.4309    0.7534 H         1    UNL1     0.0652
     47 H18        -7.5925   -2.8644    0.1607 H         1    UNL1     0.0428
     48 H19        -9.0020   -3.2695   -0.7892 H         1    UNL1     0.0428
     49 H20        -9.1363   -3.0994    0.9446 H         1    UNL1     0.0428
     50 H21       -10.4780    0.0704   -0.3508 H         1    UNL1     0.0428
     51 H22       -10.8921   -1.3128    0.6333 H         1    UNL1     0.0428
     52 H23       -10.7577   -1.4828   -1.1005 H         1    UNL1     0.0428
@<TRIPOS>UNITY_ATOM_ATTR
7 1
charge 1
@<TRIPOS>BOND
     1     1    17    1
     2     1    18    1
     3     2    14    1
     4     2    21    1
     5     3    17    2
     6     4    20    2
     7     5    21    2
     8     6    20   am
     9     6    27    1
    10     6    28    1
    11     7    24    1
    12     7    29    2
    13     8    29    1
    14     9    29    1
    15    10    11    1
    16    10    12   ar
    17    10    13   ar
    18    11    17    1
    19    12    15   ar
    20    13    16   ar
    21    14    15   ar
    22    14    16   ar
    23    18    20    1
    24    19    21    1
    25    19    22   ar
    26    19    23   ar
    27    22    25   ar
    28    23    26   ar
    29    24    25   ar
    30    24    26   ar
    31     7    30    1
    32     8    31    1
    33     8    32    1
    34     9    33    1
    35     9    34    1
    36    11    35    1
    37    11    36    1
    38    12    37    1
    39    13    38    1
    40    15    39    1
    41    16    40    1
    42    18    41    1
    43    18    42    1
    44    22    43    1
    45    23    44    1
    46    25    45    1
    47    26    46    1
    48    27    47    1
    49    27    48    1
    50    27    49    1
    51    28    50    1
    52    28    51    1
    53    28    52    1
