@<TRIPOS>MOLECULE
*****
 65 68 0 0 0
SMALL
GASTEIGER

@<TRIPOS>ATOM
      1 C1          1.9738   -5.5479    0.0852 C.ar      1    UNL1    -0.0449
      2 C2          3.1649   -6.2816    0.1184 C.ar      1    UNL1    -0.0334
      3 C3          4.3855   -5.5858    0.0654 C.ar      1    UNL1     0.0895
      4 C4          4.3767   -4.1995   -0.0476 C.ar      1    UNL1     0.0673
      5 C5          3.2111   -3.4385   -0.1062 C.ar      1    UNL1    -0.0215
      6 C6          2.0120   -4.1553   -0.0214 C.ar      1    UNL1     0.0629
      7 C7          0.7441   -3.3995   -0.0216 C.2       1    UNL1     0.2662
      8 N8          0.0110   -3.3878   -1.0934 N.2       1    UNL1    -0.2884
      9 N9          0.4084   -2.7365    1.1438 N.pl3     1    UNL1    -0.2497
     10 N10         5.7008   -3.8488   -0.0714 N.ar      1    UNL1    -0.3378
     11 C11         6.4494   -4.9954    0.0433 C.ar      1    UNL1     0.1428
     12 N12         5.6747   -6.0609    0.1160 N.ar      1    UNL1    -0.2276
     13 C13         7.9025   -4.9841    0.0533 C.ar      1    UNL1     0.0595
     14 C14         8.5858   -5.2297   -1.1410 C.ar      1    UNL1    -0.0439
     15 C15         9.9834   -5.2379   -1.1718 C.ar      1    UNL1    -0.0372
     16 C16        10.6924   -5.0450    0.0247 C.ar      1    UNL1    -0.0467
     17 C17        10.0378   -4.7734    1.2442 C.ar      1    UNL1     0.0281
     18 C18         8.6323   -4.7322    1.2252 C.ar      1    UNL1     0.1353
     19 O19         7.9460   -4.4454    2.3780 O.3       1    UNL1    -0.5054
     20 C20        10.8373   -4.4880    2.4565 C.ar      1    UNL1     0.0289
     21 C21        11.7989   -3.4617    2.4246 C.ar      1    UNL1    -0.0240
     22 C22        12.6097   -3.1939    3.5346 C.ar      1    UNL1     0.1058
     23 C23        12.4516   -3.8981    4.7219 C.ar      1    UNL1    -0.0319
     24 C24        11.4913   -4.9062    4.7831 C.ar      1    UNL1    -0.0177
     25 C25        10.7146   -5.2066    3.6577 C.ar      1    UNL1     0.1248
     26 O26         9.7993   -6.2182    3.7785 O.3       1    UNL1    -0.5062
     27 S27        13.8549   -1.9599    3.3315 S.O2      1    UNL1     0.0560
     28 O28        14.7105   -2.4235    2.2557 O.2       1    UNL1    -0.1533
     29 O29        13.1588   -0.6913    3.2482 O.2       1    UNL1    -0.1533
     30 N30        14.7455   -2.0069    4.7869 N.3       1    UNL1    -0.2035
     31 C31        10.7113   -5.4404   -2.4766 C.3       1    UNL1     0.0491
     32 C32        10.6585   -4.2298   -3.3927 C.2       1    UNL1     0.2178
     33 O33         9.9495   -3.2456   -3.2028 O.2       1    UNL1    -0.2754
     34 N34        11.5293   -4.3591   -4.4606 N.am      1    UNL1    -0.3067
     35 C35        11.0638   -4.6797   -5.8037 C.3       1    UNL1     0.0676
     36 C36        10.7731   -3.4275   -6.6416 C.3       1    UNL1     0.0105
     37 C37         9.3118   -3.2733   -6.9975 C.2       1    UNL1     0.0439
     38 O38         8.5004   -4.1790   -7.1204 O.co2     1    UNL1    -0.5497
     39 O39         9.0255   -1.9701   -7.2523 O.co2     1    UNL1    -0.5497
     40 C40        12.1632   -5.5128   -6.4339 C.2       1    UNL1     0.0623
     41 O41        12.0219   -6.6773   -6.7847 O.co2     1    UNL1    -0.5479
     42 O42        13.3196   -4.8206   -6.6068 O.co2     1    UNL1    -0.5479
     43 H1          1.0661   -6.0360    0.1395 H         1    UNL1     0.0627
     44 H2          3.1478   -7.3116    0.1805 H         1    UNL1     0.0640
     45 H3          3.2307   -2.4115   -0.2058 H         1    UNL1     0.0647
     46 H4          0.3026   -3.8799   -1.8947 H         1    UNL1     0.3009
     47 H5         -0.8364   -2.8868   -1.1047 H         1    UNL1     0.3009
     48 H6          1.0052   -2.7821    1.9255 H         1    UNL1     0.2883
     49 H7         -0.4275   -2.2187    1.1922 H         1    UNL1     0.2883
     50 H8          6.0546   -2.9340   -0.1560 H         1    UNL1     0.1674
     51 H9          8.0540   -5.4065   -2.0076 H         1    UNL1     0.0629
     52 H10        11.7226   -5.1037    0.0115 H         1    UNL1     0.0628
     53 H11         7.0095   -4.4167    2.3709 H         1    UNL1     0.2922
     54 H12        11.9088   -2.8963    1.5683 H         1    UNL1     0.0644
     55 H13        13.0352   -3.6784    5.5442 H         1    UNL1     0.0638
     56 H14        11.3524   -5.4324    5.6599 H         1    UNL1     0.0655
     57 H15         9.2593   -6.4510    3.0490 H         1    UNL1     0.2922
     58 H16        15.2394   -2.8968    4.8547 H         1    UNL1     0.1442
     59 H17        14.1092   -1.9100    5.5782 H         1    UNL1     0.1442
     60 H18        10.2687   -6.2706   -2.9863 H         1    UNL1     0.0407
     61 H19        11.7406   -5.6121   -2.2400 H         1    UNL1     0.0407
     62 H20        12.4934   -4.2305   -4.3081 H         1    UNL1     0.1493
     63 H21        10.1347   -5.2086   -5.7603 H         1    UNL1     0.0564
     64 H22        11.3392   -3.4860   -7.5477 H         1    UNL1     0.0346
     65 H23        11.0468   -2.5791   -6.0498 H         1    UNL1     0.0346
@<TRIPOS>UNITY_ATOM_ATTR
8 1
charge 1
39 1
charge -1
42 1
charge -1
@<TRIPOS>BOND
     1     1     2   ar
     2     1     6   ar
     3     2     3   ar
     4     3     4   ar
     5     3    12   ar
     6     4     5   ar
     7     4    10   ar
     8     5     6   ar
     9     6     7    1
    10     7     8    2
    11     7     9    1
    12    10    11   ar
    13    11    12   ar
    14    11    13    1
    15    13    14   ar
    16    13    18   ar
    17    14    15   ar
    18    15    16   ar
    19    15    31    1
    20    16    17   ar
    21    17    18   ar
    22    17    20    1
    23    18    19    1
    24    20    21   ar
    25    20    25   ar
    26    21    22   ar
    27    22    23   ar
    28    22    27    1
    29    23    24   ar
    30    24    25   ar
    31    25    26    1
    32    27    28    2
    33    27    29    2
    34    27    30    1
    35    31    32    1
    36    32    33    2
    37    32    34   am
    38    34    35    1
    39    35    36    1
    40    35    40    1
    41    36    37    1
    42    37    38   ar
    43    37    39   ar
    44    40    41   ar
    45    40    42   ar
    46     1    43    1
    47     2    44    1
    48     5    45    1
    49     8    46    1
    50     8    47    1
    51     9    48    1
    52     9    49    1
    53    10    50    1
    54    14    51    1
    55    16    52    1
    56    19    53    1
    57    21    54    1
    58    23    55    1
    59    24    56    1
    60    26    57    1
    61    30    58    1
    62    30    59    1
    63    31    60    1
    64    31    61    1
    65    34    62    1
    66    35    63    1
    67    36    64    1
    68    36    65    1
