@<TRIPOS>MOLECULE
64949
 45 46 0 0 0
SMALL
GASTEIGER

@<TRIPOS>ATOM
      1 O1         -1.5492   -2.5248   -0.8366 O.3       1    UNL1    -0.4918
      2 O2          1.4605   -2.5146    0.8449 O.3       1    UNL1    -0.4918
      3 N3         -3.6875    3.5486   -0.6714 N.pl3     1    UNL1    -0.2497
      4 N4          3.7799    3.4911    0.6464 N.pl3     1    UNL1    -0.2497
      5 N5         -4.7062    2.6110    1.2112 N.2       1    UNL1    -0.2884
      6 N6          4.8075    2.4994   -1.2034 N.2       1    UNL1    -0.2884
      7 C7         -0.0466   -4.1903   -0.0036 C.3       1    UNL1     0.0157
      8 C8         -1.2726   -3.3423    0.2922 C.3       1    UNL1     0.0927
      9 C9          1.1824   -3.3383   -0.2794 C.3       1    UNL1     0.0927
     10 C10        -2.1273   -1.3064   -0.5914 C.ar      1    UNL1     0.1205
     11 C11         2.0789   -1.3170    0.5961 C.ar      1    UNL1     0.1205
     12 C12        -1.8746   -0.2407   -1.4474 C.ar      1    UNL1    -0.0191
     13 C13         1.8410   -0.2331    1.4332 C.ar      1    UNL1    -0.0191
     14 C14        -2.9611   -1.1500    0.5098 C.ar      1    UNL1    -0.0191
     15 C15         2.9387   -1.1994   -0.4900 C.ar      1    UNL1    -0.0191
     16 C16        -3.3016    1.1641   -0.0959 C.ar      1    UNL1     0.0610
     17 C17         3.3353    1.1115    0.0933 C.ar      1    UNL1     0.0610
     18 C18        -2.4638    0.9988   -1.1986 C.ar      1    UNL1    -0.0436
     19 C19         2.4712    0.9854    1.1809 C.ar      1    UNL1    -0.0436
     20 C20        -3.5503    0.0897    0.7584 C.ar      1    UNL1    -0.0436
     21 C21         3.5691    0.0191   -0.7422 C.ar      1    UNL1    -0.0436
     22 C22        -3.9163    2.4564    0.1635 C.2       1    UNL1     0.2662
     23 C23         3.9927    2.3817   -0.1699 C.2       1    UNL1     0.2662
     24 H1         -4.1138    4.4145   -0.4772 H         1    UNL1     0.2883
     25 H2         -3.0995    3.4543   -1.4554 H         1    UNL1     0.2883
     26 H3          4.2353    4.3415    0.4498 H         1    UNL1     0.2883
     27 H4          3.1741    3.4244    1.4196 H         1    UNL1     0.2883
     28 H5         -5.1233    3.4850    1.3885 H         1    UNL1     0.3009
     29 H6         -4.8777    1.8522    1.8146 H         1    UNL1     0.3009
     30 H7          5.2535    3.3584   -1.3833 H         1    UNL1     0.3009
     31 H8          4.9686    1.7280   -1.7936 H         1    UNL1     0.3009
     32 H9         -0.2455   -4.7977   -0.8618 H         1    UNL1     0.0331
     33 H10         0.1549   -4.7918    0.8581 H         1    UNL1     0.0331
     34 H11        -2.1103   -3.9782    0.4892 H         1    UNL1     0.0697
     35 H12        -1.0907   -2.7280    1.1492 H         1    UNL1     0.0697
     36 H13         2.0209   -3.9754   -0.4688 H         1    UNL1     0.0697
     37 H14         0.9988   -2.7199   -1.1331 H         1    UNL1     0.0697
     38 H15        -1.2543   -0.3660   -2.2626 H         1    UNL1     0.0654
     39 H16         1.2013   -0.3294    2.2373 H         1    UNL1     0.0654
     40 H17        -3.1432   -1.9467    1.1400 H         1    UNL1     0.0654
     41 H18         3.1097   -2.0093   -1.1064 H         1    UNL1     0.0654
     42 H19        -2.2798    1.7937   -1.8305 H         1    UNL1     0.0627
     43 H20         2.2981    1.7936    1.7989 H         1    UNL1     0.0627
     44 H21        -4.1702    0.2120    1.5743 H         1    UNL1     0.0627
     45 H22         4.2085    0.1125   -1.5469 H         1    UNL1     0.0627
@<TRIPOS>UNITY_ATOM_ATTR
5 1
charge 1
6 1
charge 1
@<TRIPOS>BOND
     1     1     8    1
     2     1    10    1
     3     2     9    1
     4     2    11    1
     5     3    22    1
     6     4    23    1
     7     5    22    2
     8     6    23    2
     9     7     8    1
    10     7     9    1
    11    10    12   ar
    12    10    14   ar
    13    11    13   ar
    14    11    15   ar
    15    12    18   ar
    16    13    19   ar
    17    14    20   ar
    18    15    21   ar
    19    16    18   ar
    20    16    20   ar
    21    16    22    1
    22    17    19   ar
    23    17    21   ar
    24    17    23    1
    25     3    24    1
    26     3    25    1
    27     4    26    1
    28     4    27    1
    29     5    28    1
    30     5    29    1
    31     6    30    1
    32     6    31    1
    33     7    32    1
    34     7    33    1
    35     8    34    1
    36     8    35    1
    37     9    36    1
    38     9    37    1
    39    12    38    1
    40    13    39    1
    41    14    40    1
    42    15    41    1
    43    18    42    1
    44    19    43    1
    45    20    44    1
    46    21    45    1
