@<TRIPOS>MOLECULE
216210
 60 63 0 0 0
SMALL
GASTEIGER

@<TRIPOS>ATOM
      1 O1         -4.2923   -1.1120   -2.2319 O.2       1    UNL1    -0.2696
      2 O2         -5.8623    4.1590    1.0553 O.co2     1    UNL1    -0.5498
      3 O3         -4.2957    3.1681    2.3666 O.co2     1    UNL1    -0.5498
      4 N4          1.3677    1.4002   -1.2822 N.ar      1    UNL1    -0.3294
      5 N5          0.8728   -0.1644    0.2169 N.ar      1    UNL1    -0.2307
      6 N6         -4.6257   -0.4179    0.0012 N.am      1    UNL1    -0.2518
      7 N7          4.1559   -0.1803   -0.4996 N.pl3     1    UNL1    -0.3367
      8 N8         -5.7974   -2.4683   -0.4764 N.ar      1    UNL1    -0.2399
      9 N9         10.0993    0.0297    2.0173 N.pl3     1    UNL1    -0.2497
     10 N10        10.3364   -1.5543    0.3156 N.2       1    UNL1    -0.2884
     11 C11         0.0455    1.0401   -1.4055 C.ar      1    UNL1     0.0686
     12 C12         1.8329    0.6591   -0.3016 C.ar      1    UNL1     0.1277
     13 C13        -0.2894    0.0597   -0.4755 C.ar      1    UNL1     0.0901
     14 C14         3.2318    0.7279    0.1683 C.3       1    UNL1     0.0674
     15 C15        -2.5335   -0.0168   -1.2618 C.ar      1    UNL1     0.0394
     16 C16        -1.5660   -0.4938   -0.3713 C.ar      1    UNL1    -0.0221
     17 C17        -0.9390    1.5074   -2.2926 C.ar      1    UNL1    -0.0353
     18 C18        -2.2278    0.9659   -2.2062 C.ar      1    UNL1    -0.0475
     19 C19         2.0664    2.3846   -2.0729 C.3       1    UNL1     0.0136
     20 C20        -3.8839   -0.5562   -1.2025 C.2       1    UNL1     0.2520
     21 C21        -4.4025    0.7341    0.8893 C.3       1    UNL1     0.0265
     22 C22         5.4793   -0.3117   -0.1383 C.ar      1    UNL1     0.0275
     23 C23        -5.3064    1.9093    0.5405 C.3       1    UNL1     0.0031
     24 C24        -5.6117   -1.4209    0.3578 C.ar      1    UNL1     0.1277
     25 C25         5.9937    0.4461    0.9138 C.ar      1    UNL1    -0.0400
     26 C26         6.3047   -1.2016   -0.8256 C.ar      1    UNL1    -0.0400
     27 C27        -6.3080   -1.2393    1.5420 C.ar      1    UNL1    -0.0213
     28 C28         7.3334    0.3139    1.2785 C.ar      1    UNL1    -0.0453
     29 C29         7.6445   -1.3337   -0.4610 C.ar      1    UNL1    -0.0453
     30 C30         8.1589   -0.5760    0.5912 C.ar      1    UNL1     0.0609
     31 C31        -5.0798    3.1128    1.4296 C.2       1    UNL1     0.0432
     32 C32        -7.2557   -2.1944    1.8925 C.ar      1    UNL1    -0.0571
     33 C33        -6.7268   -3.3762   -0.1026 C.ar      1    UNL1     0.0297
     34 C34        -7.4751   -3.2863    1.0601 C.ar      1    UNL1    -0.0435
     35 C35         9.5559   -0.7137    0.9711 C.2       1    UNL1     0.2662
     36 H1          3.8180   -0.7267   -1.2455 H         1    UNL1     0.1465
     37 H2         11.0477   -0.0792    2.2578 H         1    UNL1     0.2883
     38 H3          9.5347    0.6637    2.5158 H         1    UNL1     0.2883
     39 H4         11.2824   -1.6490    0.5713 H         1    UNL1     0.3009
     40 H5          9.9720   -2.0860   -0.4285 H         1    UNL1     0.3009
     41 H6          3.5829    1.7274    0.0176 H         1    UNL1     0.0541
     42 H7          3.2148    0.4315    1.1963 H         1    UNL1     0.0541
     43 H8         -1.7857   -1.2197    0.3286 H         1    UNL1     0.0647
     44 H9         -0.7174    2.2332   -2.9920 H         1    UNL1     0.0639
     45 H10        -2.9627    1.2980   -2.8501 H         1    UNL1     0.0626
     46 H11         1.3949    2.8077   -2.7905 H         1    UNL1     0.0456
     47 H12         2.8844    1.9185   -2.5814 H         1    UNL1     0.0456
     48 H13         2.4380    3.1576   -1.4331 H         1    UNL1     0.0456
     49 H14        -3.3825    1.0452    0.8013 H         1    UNL1     0.0473
     50 H15        -4.6300    0.4286    1.8892 H         1    UNL1     0.0473
     51 H16        -6.3251    1.5978    0.6412 H         1    UNL1     0.0340
     52 H17        -5.0765    2.2038   -0.4621 H         1    UNL1     0.0340
     53 H18         5.3830    1.1045    1.4223 H         1    UNL1     0.0636
     54 H19         5.9241   -1.7623   -1.6039 H         1    UNL1     0.0636
     55 H20        -6.1288   -0.4210    2.1447 H         1    UNL1     0.0652
     56 H21         7.7140    0.8745    2.0569 H         1    UNL1     0.0627
     57 H22         8.2552   -1.9920   -0.9696 H         1    UNL1     0.0627
     58 H23        -7.7942   -2.0933    2.7671 H         1    UNL1     0.0619
     59 H24        -6.8889   -4.1861   -0.7214 H         1    UNL1     0.0830
     60 H25        -8.1733   -4.0071    1.3007 H         1    UNL1     0.0633
@<TRIPOS>UNITY_ATOM_ATTR
2 1
charge -1
10 1
charge 1
@<TRIPOS>BOND
     1     1    20    2
     2     2    31   ar
     3     3    31   ar
     4     4    11   ar
     5     4    12   ar
     6     4    19    1
     7     5    12   ar
     8     5    13   ar
     9     6    20   am
    10     6    21    1
    11     6    24    1
    12     7    14    1
    13     7    22    1
    14     8    24   ar
    15     8    33   ar
    16     9    35    1
    17    10    35    2
    18    11    13   ar
    19    11    17   ar
    20    12    14    1
    21    13    16   ar
    22    15    16   ar
    23    15    18   ar
    24    15    20    1
    25    17    18   ar
    26    21    23    1
    27    22    25   ar
    28    22    26   ar
    29    23    31    1
    30    24    27   ar
    31    25    28   ar
    32    26    29   ar
    33    27    32   ar
    34    28    30   ar
    35    29    30   ar
    36    30    35    1
    37    32    34   ar
    38    33    34   ar
    39     7    36    1
    40     9    37    1
    41     9    38    1
    42    10    39    1
    43    10    40    1
    44    14    41    1
    45    14    42    1
    46    16    43    1
    47    17    44    1
    48    18    45    1
    49    19    46    1
    50    19    47    1
    51    19    48    1
    52    21    49    1
    53    21    50    1
    54    23    51    1
    55    23    52    1
    56    25    53    1
    57    26    54    1
    58    27    55    1
    59    28    56    1
    60    29    57    1
    61    32    58    1
    62    33    59    1
    63    34    60    1
