@<TRIPOS>MOLECULE
5284571
 39 40 0 0 0
SMALL
GASTEIGER

@<TRIPOS>ATOM
      1 O1         -1.8720   -2.0917   -0.9606 O.3       1    UNL1    -0.5062
      2 N2         -6.7236    1.2499    0.6205 N.pl3     1    UNL1    -0.2497
      3 N3          6.8067    0.8363   -1.1075 N.pl3     1    UNL1    -0.2497
      4 N4         -6.6865   -0.9874   -0.0535 N.2       1    UNL1    -0.2884
      5 N5          6.9781   -0.6076    0.7218 N.2       1    UNL1    -0.2884
      6 C6         -1.8186    0.2100   -0.2735 C.ar      1    UNL1     0.0165
      7 C7          1.9907   -0.0198    0.3697 C.ar      1    UNL1    -0.0250
      8 C8         -2.5099   -0.9607   -0.5442 C.ar      1    UNL1     0.1248
      9 C9         -0.3543    0.2660   -0.4296 C.2       1    UNL1    -0.0506
     10 C10        -4.5736    0.1538    0.0355 C.ar      1    UNL1     0.0643
     11 C11        -2.4796    1.3535    0.1491 C.ar      1    UNL1    -0.0503
     12 C12         0.5453   -0.0566    0.5295 C.2       1    UNL1    -0.0539
     13 C13        -3.8957   -0.9890   -0.3888 C.ar      1    UNL1    -0.0049
     14 C14        -3.8655    1.3251    0.3045 C.ar      1    UNL1    -0.0462
     15 C15         2.5605    0.7418   -0.6504 C.ar      1    UNL1    -0.0538
     16 C16         2.8069   -0.7468    1.2364 C.ar      1    UNL1    -0.0538
     17 C17         4.7627    0.0494    0.0625 C.ar      1    UNL1     0.0608
     18 C18         3.9464    0.7764   -0.8041 C.ar      1    UNL1    -0.0465
     19 C19         4.1928   -0.7121    1.0828 C.ar      1    UNL1    -0.0465
     20 C20        -6.0185    0.1244    0.1978 C.2       1    UNL1     0.2663
     21 C21         6.2077    0.0853   -0.0979 C.2       1    UNL1     0.2662
     22 H1         -0.9415   -2.0913   -1.0705 H         1    UNL1     0.2922
     23 H2         -7.7018    1.2079    0.7237 H         1    UNL1     0.2883
     24 H3         -6.2435    2.0869    0.8159 H         1    UNL1     0.2883
     25 H4          7.7870    0.8463   -1.1979 H         1    UNL1     0.2883
     26 H5          6.2496    1.3568   -1.7303 H         1    UNL1     0.2883
     27 H6         -7.6647   -1.0093    0.0558 H         1    UNL1     0.3009
     28 H7         -6.2061   -1.7940   -0.3500 H         1    UNL1     0.3009
     29 H8          7.9565   -0.5847    0.6150 H         1    UNL1     0.3009
     30 H9          6.5738   -1.1468    1.4394 H         1    UNL1     0.3009
     31 H10         0.0147    0.5756   -1.3423 H         1    UNL1     0.0625
     32 H11        -1.9510    2.2175    0.3468 H         1    UNL1     0.0625
     33 H12         0.1762   -0.3521    1.4468 H         1    UNL1     0.0624
     34 H13        -4.4196   -1.8556   -0.5878 H         1    UNL1     0.0663
     35 H14        -4.3670    2.1707    0.6185 H         1    UNL1     0.0626
     36 H15         1.9567    1.2798   -1.2915 H         1    UNL1     0.0624
     37 H16         2.3853   -1.3103    1.9912 H         1    UNL1     0.0624
     38 H17         4.3679    1.3399   -1.5590 H         1    UNL1     0.0626
     39 H18         4.7966   -1.2499    1.7241 H         1    UNL1     0.0626
@<TRIPOS>UNITY_ATOM_ATTR
4 1
charge 1
5 1
charge 1
@<TRIPOS>BOND
     1     1     8    1
     2     2    20    1
     3     3    21    1
     4     4    20    2
     5     5    21    2
     6     6     8   ar
     7     6     9    1
     8     6    11   ar
     9     7    12    1
    10     7    15   ar
    11     7    16   ar
    12     8    13   ar
    13     9    12    2
    14    10    13   ar
    15    10    14   ar
    16    10    20    1
    17    11    14   ar
    18    15    18   ar
    19    16    19   ar
    20    17    18   ar
    21    17    19   ar
    22    17    21    1
    23     1    22    1
    24     2    23    1
    25     2    24    1
    26     3    25    1
    27     3    26    1
    28     4    27    1
    29     4    28    1
    30     5    29    1
    31     5    30    1
    32     9    31    1
    33    11    32    1
    34    12    33    1
    35    13    34    1
    36    14    35    1
    37    15    36    1
    38    16    37    1
    39    18    38    1
    40    19    39    1
