#REMARK Cluster  10 of Poses:  1 Score: -7.42 kcal/mol
@<TRIPOS>MOLECULE
4735
 51 52 0 0 0
SMALL
GASTEIGER

@<TRIPOS>ATOM
      1 O1          5.6430   -2.2470    7.7600 O.3       1    UNL1    -0.4920
      2 O2          7.1200    0.9330   10.5490 O.3       1    UNL1    -0.4920
      3 N3          5.5370   -6.4360    2.8550 N.pl3     1    UNL1    -0.2497
      4 N4         11.1300    5.9600   10.0530 N.pl3     1    UNL1    -0.2497
      5 N5          6.9570   -7.4920    4.3800 N.2       1    UNL1    -0.2884
      6 N6         10.2830    5.7860    7.8820 N.2       1    UNL1    -0.2884
      7 C7          5.7900   -1.7850   11.1830 C.3       1    UNL1    -0.0469
      8 C8          5.0350   -1.3620    9.9190 C.3       1    UNL1    -0.0185
      9 C9          7.2640   -1.3910   11.1050 C.3       1    UNL1    -0.0185
     10 C10         4.8810   -2.5100    8.9290 C.3       1    UNL1     0.0896
     11 C11         7.5080   -0.3340   10.0380 C.3       1    UNL1     0.0896
     12 C12         5.7760   -3.2750    6.8630 C.ar      1    UNL1     0.1205
     13 C13         7.8970    2.0070   10.1990 C.ar      1    UNL1     0.1205
     14 C14         5.2140   -3.1680    5.5900 C.ar      1    UNL1    -0.0191
     15 C15         7.4190    3.3040   10.3840 C.ar      1    UNL1    -0.0191
     16 C16         6.4750   -4.4280    7.2210 C.ar      1    UNL1    -0.0191
     17 C17         9.1670    1.8010    9.6600 C.ar      1    UNL1    -0.0191
     18 C18         6.0500   -5.3660    5.0360 C.ar      1    UNL1     0.0610
     19 C19         9.4810    4.1910    9.4900 C.ar      1    UNL1     0.0610
     20 C20         5.3510   -4.2130    4.6770 C.ar      1    UNL1    -0.0436
     21 C21         8.2110    4.3960   10.0300 C.ar      1    UNL1    -0.0436
     22 C22         6.6120   -5.4730    6.3080 C.ar      1    UNL1    -0.0436
     23 C23         9.9590    2.8940    9.3060 C.ar      1    UNL1    -0.0436
     24 C24         6.1940   -6.4550    4.0830 C.2       1    UNL1     0.2662
     25 C25        10.3080    5.3290    9.1210 C.2       1    UNL1     0.2662
     26 H1          4.5530   -6.4670    2.8220 H         1    UNL1     0.2883
     27 H2          6.0560   -6.3910    2.0190 H         1    UNL1     0.2883
     28 H3         11.3060    6.9260    9.9800 H         1    UNL1     0.2883
     29 H4         11.5360    5.4400   10.7840 H         1    UNL1     0.2883
     30 H5          7.0560   -8.2310    3.7370 H         1    UNL1     0.3009
     31 H6          7.4270   -7.5260    5.2440 H         1    UNL1     0.3009
     32 H7         10.8410    6.5570    7.6300 H         1    UNL1     0.3009
     33 H8          9.7060    5.3560    7.2100 H         1    UNL1     0.3009
     34 H9          5.7180   -2.8470   11.2930 H         1    UNL1     0.0267
     35 H10         5.3510   -1.2870   12.0210 H         1    UNL1     0.0267
     36 H11         5.5730   -0.5680    9.4450 H         1    UNL1     0.0298
     37 H12         4.0550   -1.0480   10.2120 H         1    UNL1     0.0298
     38 H13         7.8430   -2.2600   10.8720 H         1    UNL1     0.0298
     39 H14         7.5510   -0.9830   12.0520 H         1    UNL1     0.0298
     40 H15         5.2260   -3.4170    9.3800 H         1    UNL1     0.0696
     41 H16         3.8500   -2.6090    8.6620 H         1    UNL1     0.0696
     42 H17         8.5470   -0.3150    9.7810 H         1    UNL1     0.0696
     43 H18         6.9360   -0.5630    9.1630 H         1    UNL1     0.0696
     44 H19         4.6970   -2.3150    5.3250 H         1    UNL1     0.0654
     45 H20         6.4800    3.4560   10.7830 H         1    UNL1     0.0654
     46 H21         6.8910   -4.5070    8.1630 H         1    UNL1     0.0654
     47 H22         9.5210    0.8420    9.5240 H         1    UNL1     0.0654
     48 H23         4.9360   -4.1340    3.7360 H         1    UNL1     0.0627
     49 H24         7.8580    5.3560   10.1660 H         1    UNL1     0.0627
     50 H25         7.1290   -6.3260    6.5730 H         1    UNL1     0.0627
     51 H26        10.8990    2.7420    8.9070 H         1    UNL1     0.0627
@<TRIPOS>UNITY_ATOM_ATTR
5 1
charge 1
6 1
charge 1
@<TRIPOS>BOND
     1     1    10    1
     2     1    12    1
     3     2    11    1
     4     2    13    1
     5     3    24    1
     6     4    25    1
     7     5    24    2
     8     6    25    2
     9     7     8    1
    10     7     9    1
    11     8    10    1
    12     9    11    1
    13    12    14   ar
    14    12    16   ar
    15    13    15   ar
    16    13    17   ar
    17    14    20   ar
    18    15    21   ar
    19    16    22   ar
    20    17    23   ar
    21    18    20   ar
    22    18    22   ar
    23    18    24    1
    24    19    21   ar
    25    19    23   ar
    26    19    25    1
    27     3    26    1
    28     3    27    1
    29     4    28    1
    30     4    29    1
    31     5    30    1
    32     5    31    1
    33     6    32    1
    34     6    33    1
    35     7    34    1
    36     7    35    1
    37     8    36    1
    38     8    37    1
    39     9    38    1
    40     9    39    1
    41    10    40    1
    42    10    41    1
    43    11    42    1
    44    11    43    1
    45    14    44    1
    46    15    45    1
    47    16    46    1
    48    17    47    1
    49    20    48    1
    50    21    49    1
    51    22    50    1
    52    23    51    1
