#REMARK Cluster   4 of Poses:  3 Score: -8.03 kcal/mol
@<TRIPOS>MOLECULE
4735
 51 52 0 0 0
SMALL
GASTEIGER

@<TRIPOS>ATOM
      1 O1          7.2130   -3.0010    8.2330 O.3       1    UNL1    -0.4920
      2 O2          5.2410    1.9830   11.5840 O.3       1    UNL1    -0.4920
      3 N3          5.4230   -6.3860    3.0420 N.pl3     1    UNL1    -0.2497
      4 N4          1.8870    6.8280   14.2060 N.pl3     1    UNL1    -0.2497
      5 N5          6.5990   -7.9740    4.2890 N.2       1    UNL1    -0.2884
      6 N6          3.7260    6.6670   15.6380 N.2       1    UNL1    -0.2884
      7 C7          5.8080    0.0140    9.9240 C.3       1    UNL1    -0.0469
      8 C8          6.8960   -0.8530    9.2830 C.3       1    UNL1    -0.0185
      9 C9          5.5710   -0.3800   11.3800 C.3       1    UNL1    -0.0185
     10 C10         6.3170   -1.9040    8.3440 C.3       1    UNL1     0.0896
     11 C11         5.6390    0.8260   12.3070 C.3       1    UNL1     0.0896
     12 C12         6.9560   -3.9120    7.2420 C.ar      1    UNL1     0.1205
     13 C13         4.7170    3.0180   12.3130 C.ar      1    UNL1     0.1205
     14 C14         7.4010   -5.2280    7.3720 C.ar      1    UNL1    -0.0191
     15 C15         4.7560    4.3180   11.8070 C.ar      1    UNL1    -0.0191
     16 C16         6.2480   -3.5240    6.1040 C.ar      1    UNL1    -0.0191
     17 C17         4.1430    2.7720   13.5610 C.ar      1    UNL1    -0.0191
     18 C18         6.4300   -5.7680    5.2260 C.ar      1    UNL1     0.0610
     19 C19         3.6470    5.1250   13.7960 C.ar      1    UNL1     0.0610
     20 C20         7.1380   -6.1560    6.3640 C.ar      1    UNL1    -0.0436
     21 C21         4.2210    5.3710   12.5490 C.ar      1    UNL1    -0.0436
     22 C22         5.9850   -4.4520    5.0960 C.ar      1    UNL1    -0.0436
     23 C23         3.6080    3.8260   14.3020 C.ar      1    UNL1    -0.0436
     24 C24         6.1550   -6.7350    4.1760 C.2       1    UNL1     0.2662
     25 C25         3.0880    6.2230   14.5690 C.2       1    UNL1     0.2662
     26 H1          4.5140   -6.0200    3.1370 H         1    UNL1     0.2883
     27 H2          5.8150   -6.5060    2.1470 H         1    UNL1     0.2883
     28 H3          1.7970    7.2530   13.3220 H         1    UNL1     0.2883
     29 H4          1.1270    6.8310   14.8320 H         1    UNL1     0.2883
     30 H5          6.4140   -8.6310    3.5790 H         1    UNL1     0.3009
     31 H6          7.1150   -8.2410    5.0840 H         1    UNL1     0.3009
     32 H7          3.3500    7.4100   16.1620 H         1    UNL1     0.3009
     33 H8          4.5780    6.2550   15.9090 H         1    UNL1     0.3009
     34 H9          4.8960   -0.1100    9.3770 H         1    UNL1     0.0267
     35 H10         6.1290    1.0340    9.8970 H         1    UNL1     0.0267
     36 H11         7.4430   -1.3470   10.0590 H         1    UNL1     0.0298
     37 H12         7.5300   -0.2120    8.7070 H         1    UNL1     0.0298
     38 H13         6.3190   -1.0860   11.6750 H         1    UNL1     0.0298
     39 H14         4.5920   -0.8050   11.4570 H         1    UNL1     0.0298
     40 H15         5.3810   -2.2490    8.7320 H         1    UNL1     0.0696
     41 H16         6.1700   -1.4700    7.3780 H         1    UNL1     0.0696
     42 H17         4.9820    0.6780   13.1380 H         1    UNL1     0.0696
     43 H18         6.6380    0.9500   12.6690 H         1    UNL1     0.0696
     44 H19         7.9240   -5.5150    8.2130 H         1    UNL1     0.0654
     45 H20         5.1800    4.5000   10.8850 H         1    UNL1     0.0654
     46 H21         5.9190   -2.5510    6.0080 H         1    UNL1     0.0654
     47 H22         4.1140    1.8110   13.9350 H         1    UNL1     0.0654
     48 H23         7.4670   -7.1290    6.4600 H         1    UNL1     0.0627
     49 H24         4.2490    6.3320   12.1750 H         1    UNL1     0.0627
     50 H25         5.4610   -4.1650    4.2550 H         1    UNL1     0.0627
     51 H26         3.1830    3.6440   15.2250 H         1    UNL1     0.0627
@<TRIPOS>UNITY_ATOM_ATTR
5 1
charge 1
6 1
charge 1
@<TRIPOS>BOND
     1     1    10    1
     2     1    12    1
     3     2    11    1
     4     2    13    1
     5     3    24    1
     6     4    25    1
     7     5    24    2
     8     6    25    2
     9     7     8    1
    10     7     9    1
    11     8    10    1
    12     9    11    1
    13    12    14   ar
    14    12    16   ar
    15    13    15   ar
    16    13    17   ar
    17    14    20   ar
    18    15    21   ar
    19    16    22   ar
    20    17    23   ar
    21    18    20   ar
    22    18    22   ar
    23    18    24    1
    24    19    21   ar
    25    19    23   ar
    26    19    25    1
    27     3    26    1
    28     3    27    1
    29     4    28    1
    30     4    29    1
    31     5    30    1
    32     5    31    1
    33     6    32    1
    34     6    33    1
    35     7    34    1
    36     7    35    1
    37     8    36    1
    38     8    37    1
    39     9    38    1
    40     9    39    1
    41    10    40    1
    42    10    41    1
    43    11    42    1
    44    11    43    1
    45    14    44    1
    46    15    45    1
    47    16    46    1
    48    17    47    1
    49    20    48    1
    50    21    49    1
    51    22    50    1
    52    23    51    1
