#REMARK Cluster   6 of Poses:  1 Score: -7.72 kcal/mol
@<TRIPOS>MOLECULE
4735
 51 52 0 0 0
SMALL
GASTEIGER

@<TRIPOS>ATOM
      1 O1          6.4530   -2.1550    7.7900 O.3       1    UNL1    -0.4920
      2 O2          5.3640   -6.0610   10.5860 O.3       1    UNL1    -0.4920
      3 N3          5.2850   -6.5720    3.2350 N.pl3     1    UNL1    -0.2497
      4 N4         11.1300   -7.7740   12.9150 N.pl3     1    UNL1    -0.2497
      5 N5          6.9720   -7.5890    4.4930 N.2       1    UNL1    -0.2884
      6 N6         11.5120   -7.7560   10.6100 N.2       1    UNL1    -0.2884
      7 C7          3.5600   -2.8190   10.0460 C.3       1    UNL1    -0.0469
      8 C8          4.3380   -2.0900    8.9470 C.3       1    UNL1    -0.0185
      9 C9          3.8220   -4.3240   10.0050 C.3       1    UNL1    -0.0185
     10 C10         5.8420   -2.3090    9.0630 C.3       1    UNL1     0.0896
     11 C11         5.0220   -4.7090   10.8580 C.3       1    UNL1     0.0896
     12 C12         6.3880   -3.2270    6.9380 C.ar      1    UNL1     0.1205
     13 C13         6.6600   -6.4330   10.8360 C.ar      1    UNL1     0.1205
     14 C14         7.2660   -4.2990    7.0960 C.ar      1    UNL1    -0.0191
     15 C15         7.6210   -6.3310    9.8310 C.ar      1    UNL1    -0.0191
     16 C16         5.4410   -3.2470    5.9130 C.ar      1    UNL1    -0.0191
     17 C17         7.0160   -6.9130   12.0970 C.ar      1    UNL1    -0.0191
     18 C18         6.2520   -5.4100    5.2060 C.ar      1    UNL1     0.0610
     19 C19         9.2960   -7.1870   11.3470 C.ar      1    UNL1     0.0610
     20 C20         7.1980   -5.3900    6.2300 C.ar      1    UNL1    -0.0436
     21 C21         8.9400   -6.7080   10.0860 C.ar      1    UNL1    -0.0436
     22 C22         5.3730   -4.3380    5.0470 C.ar      1    UNL1    -0.0436
     23 C23         8.3350   -7.2900   12.3520 C.ar      1    UNL1    -0.0436
     24 C24         6.1800   -6.5480    4.3040 C.2       1    UNL1     0.2662
     25 C25        10.6710   -7.5800   11.6130 C.2       1    UNL1     0.2662
     26 H1          4.3170   -6.5040    3.4030 H         1    UNL1     0.2883
     27 H2          5.6210   -6.6560    2.3140 H         1    UNL1     0.2883
     28 H3         10.5900   -8.2910   13.5550 H         1    UNL1     0.2883
     29 H4         11.9940   -7.3930   13.1940 H         1    UNL1     0.2883
     30 H5          6.9250   -8.3600    3.8830 H         1    UNL1     0.3009
     31 H6          7.6090   -7.5930    5.2430 H         1    UNL1     0.3009
     32 H7         12.4430   -8.0210   10.7880 H         1    UNL1     0.3009
     33 H8         11.2080   -7.6210    9.6830 H         1    UNL1     0.3009
     34 H9          2.5140   -2.6440    9.9080 H         1    UNL1     0.0267
     35 H10         3.8850   -2.4460   10.9950 H         1    UNL1     0.0267
     36 H11         4.1360   -1.0420    9.0190 H         1    UNL1     0.0298
     37 H12         4.0200   -2.4830    8.0040 H         1    UNL1     0.0298
     38 H13         4.0070   -4.6160    8.9930 H         1    UNL1     0.0298
     39 H14         2.9600   -4.8230   10.3960 H         1    UNL1     0.0298
     40 H15         6.2530   -1.5930    9.7430 H         1    UNL1     0.0696
     41 H16         6.0260   -3.3000    9.4240 H         1    UNL1     0.0696
     42 H17         5.8500   -4.0740   10.6210 H         1    UNL1     0.0696
     43 H18         4.7810   -4.5970   11.8950 H         1    UNL1     0.0696
     44 H19         7.9660   -4.2850    7.8540 H         1    UNL1     0.0654
     45 H20         7.3570   -5.9760    8.8980 H         1    UNL1     0.0654
     46 H21         4.7910   -2.4540    5.7960 H         1    UNL1     0.0654
     47 H22         6.3050   -6.9880   12.8400 H         1    UNL1     0.0654
     48 H23         7.8480   -6.1830    6.3480 H         1    UNL1     0.0627
     49 H24         9.6510   -6.6320    9.3430 H         1    UNL1     0.0627
     50 H25         4.6730   -4.3530    4.2890 H         1    UNL1     0.0627
     51 H26         8.5990   -7.6440   13.2840 H         1    UNL1     0.0627
@<TRIPOS>UNITY_ATOM_ATTR
5 1
charge 1
6 1
charge 1
@<TRIPOS>BOND
     1     1    10    1
     2     1    12    1
     3     2    11    1
     4     2    13    1
     5     3    24    1
     6     4    25    1
     7     5    24    2
     8     6    25    2
     9     7     8    1
    10     7     9    1
    11     8    10    1
    12     9    11    1
    13    12    14   ar
    14    12    16   ar
    15    13    15   ar
    16    13    17   ar
    17    14    20   ar
    18    15    21   ar
    19    16    22   ar
    20    17    23   ar
    21    18    20   ar
    22    18    22   ar
    23    18    24    1
    24    19    21   ar
    25    19    23   ar
    26    19    25    1
    27     3    26    1
    28     3    27    1
    29     4    28    1
    30     4    29    1
    31     5    30    1
    32     5    31    1
    33     6    32    1
    34     6    33    1
    35     7    34    1
    36     7    35    1
    37     8    36    1
    38     8    37    1
    39     9    38    1
    40     9    39    1
    41    10    40    1
    42    10    41    1
    43    11    42    1
    44    11    43    1
    45    14    44    1
    46    15    45    1
    47    16    46    1
    48    17    47    1
    49    20    48    1
    50    21    49    1
    51    22    50    1
    52    23    51    1
