#REMARK Cluster  12 of Poses:  1 Score: -7.36 kcal/mol
@<TRIPOS>MOLECULE
4735
 51 52 0 0 0
SMALL
GASTEIGER

@<TRIPOS>ATOM
      1 O1          4.7690   -0.3290   13.4690 O.3       1    UNL1    -0.4920
      2 O2          5.8180   -1.9980    7.5800 O.3       1    UNL1    -0.4920
      3 N3          5.1870    6.1010   13.7520 N.pl3     1    UNL1    -0.2497
      4 N4          6.8600   -7.5550    4.4750 N.pl3     1    UNL1    -0.2497
      5 N5          2.8970    5.7680   13.4290 N.2       1    UNL1    -0.2884
      6 N6          5.4450   -6.4210    3.0010 N.2       1    UNL1    -0.2884
      7 C7          5.0520   -2.7000   11.1030 C.3       1    UNL1    -0.0469
      8 C8          4.4940   -1.2840   11.2720 C.3       1    UNL1    -0.0185
      9 C9          5.1910   -3.0690    9.6270 C.3       1    UNL1    -0.0185
     10 C10         3.8770   -1.0680   12.6480 C.3       1    UNL1     0.0896
     11 C11         6.2260   -2.2010    8.9260 C.3       1    UNL1     0.0896
     12 C12         4.6050    1.0320   13.4930 C.ar      1    UNL1     0.1205
     13 C13         5.8860   -3.0810    6.7430 C.ar      1    UNL1     0.1205
     14 C14         3.7930    1.6200   14.4640 C.ar      1    UNL1    -0.0191
     15 C15         5.1010   -3.1230    5.5900 C.ar      1    UNL1    -0.0191
     16 C16         5.2520    1.8290   12.5490 C.ar      1    UNL1    -0.0191
     17 C17         6.7420   -4.1420    7.0420 C.ar      1    UNL1    -0.0191
     18 C18         4.2740    3.8020   13.5450 C.ar      1    UNL1     0.0610
     19 C19         6.0280   -5.2840    5.0370 C.ar      1    UNL1     0.0610
     20 C20         3.6270    3.0040   14.4890 C.ar      1    UNL1    -0.0436
     21 C21         5.1720   -4.2240    4.7380 C.ar      1    UNL1    -0.0436
     22 C22         5.0860    3.2140   12.5750 C.ar      1    UNL1    -0.0436
     23 C23         6.8130   -5.2430    6.1890 C.ar      1    UNL1    -0.0436
     24 C24         4.1020    5.2460   13.5720 C.2       1    UNL1     0.2662
     25 C25         6.1020   -6.4330    4.1480 C.2       1    UNL1     0.2662
     26 H1          6.0680    5.8640   13.3810 H         1    UNL1     0.2883
     27 H2          5.0730    6.9430   14.2490 H         1    UNL1     0.2883
     28 H3          7.0490   -8.2390    3.7920 H         1    UNL1     0.2883
     29 H4          7.2080   -7.6650    5.3900 H         1    UNL1     0.2883
     30 H5          2.7790    6.7450   13.4470 H         1    UNL1     0.3009
     31 H6          2.1180    5.1800   13.3030 H         1    UNL1     0.3009
     32 H7          5.4940   -7.1970    2.3980 H         1    UNL1     0.3009
     33 H8          4.9070   -5.6360    2.7510 H         1    UNL1     0.3009
     34 H9          4.3890   -3.3950   11.5750 H         1    UNL1     0.0267
     35 H10         6.0220   -2.7370   11.5530 H         1    UNL1     0.0267
     36 H11         3.7440   -1.1180   10.5280 H         1    UNL1     0.0298
     37 H12         5.3070   -0.5960   11.1660 H         1    UNL1     0.0298
     38 H13         4.2440   -2.9370    9.1460 H         1    UNL1     0.0298
     39 H14         5.5120   -4.0880    9.5660 H         1    UNL1     0.0298
     40 H15         2.9600   -0.5270   12.5440 H         1    UNL1     0.0696
     41 H16         3.6870   -2.0190   13.1020 H         1    UNL1     0.0696
     42 H17         6.3010   -1.2570    9.4250 H         1    UNL1     0.0696
     43 H18         7.1800   -2.6850    8.9470 H         1    UNL1     0.0696
     44 H19         3.3150    1.0300   15.1620 H         1    UNL1     0.0654
     45 H20         4.4680   -2.3380    5.3690 H         1    UNL1     0.0654
     46 H21         5.8530    1.3950   11.8310 H         1    UNL1     0.0654
     47 H22         7.3230   -4.1110    7.8950 H         1    UNL1     0.0654
     48 H23         3.0270    3.4390   15.2070 H         1    UNL1     0.0627
     49 H24         4.5910   -4.2550    3.8850 H         1    UNL1     0.0627
     50 H25         5.5640    3.8040   11.8760 H         1    UNL1     0.0627
     51 H26         7.4460   -6.0270    6.4110 H         1    UNL1     0.0627
@<TRIPOS>UNITY_ATOM_ATTR
5 1
charge 1
6 1
charge 1
@<TRIPOS>BOND
     1     1    10    1
     2     1    12    1
     3     2    11    1
     4     2    13    1
     5     3    24    1
     6     4    25    1
     7     5    24    2
     8     6    25    2
     9     7     8    1
    10     7     9    1
    11     8    10    1
    12     9    11    1
    13    12    14   ar
    14    12    16   ar
    15    13    15   ar
    16    13    17   ar
    17    14    20   ar
    18    15    21   ar
    19    16    22   ar
    20    17    23   ar
    21    18    20   ar
    22    18    22   ar
    23    18    24    1
    24    19    21   ar
    25    19    23   ar
    26    19    25    1
    27     3    26    1
    28     3    27    1
    29     4    28    1
    30     4    29    1
    31     5    30    1
    32     5    31    1
    33     6    32    1
    34     6    33    1
    35     7    34    1
    36     7    35    1
    37     8    36    1
    38     8    37    1
    39     9    38    1
    40     9    39    1
    41    10    40    1
    42    10    41    1
    43    11    42    1
    44    11    43    1
    45    14    44    1
    46    15    45    1
    47    16    46    1
    48    17    47    1
    49    20    48    1
    50    21    49    1
    51    22    50    1
    52    23    51    1
