#REMARK Cluster   3 of Poses:  1 Score: -8.24 kcal/mol
@<TRIPOS>MOLECULE
4735
 51 52 0 0 0
SMALL
GASTEIGER

@<TRIPOS>ATOM
      1 O1          6.3160   -2.8180    8.2460 O.3       1    UNL1    -0.4920
      2 O2          4.7120   -7.4850   11.7550 O.3       1    UNL1    -0.4920
      3 N3          5.4050   -6.4630    3.0020 N.pl3     1    UNL1    -0.2497
      4 N4         -1.2570   -8.4950   13.9810 N.pl3     1    UNL1    -0.2497
      5 N5          6.9270   -7.7370    4.2350 N.2       1    UNL1    -0.2884
      6 N6         -1.4880   -8.9780   11.7060 N.2       1    UNL1    -0.2884
      7 C7          5.5880   -4.0660   10.8770 C.3       1    UNL1    -0.0469
      8 C8          4.6480   -3.7720    9.7040 C.3       1    UNL1    -0.0185
      9 C9          5.9000   -5.5580   10.9760 C.3       1    UNL1    -0.0185
     10 C10         5.0870   -2.5500    8.9060 C.3       1    UNL1     0.0896
     11 C11         5.1820   -6.2050   12.1520 C.3       1    UNL1     0.0896
     12 C12         6.2880   -3.7510    7.2420 C.ar      1    UNL1     0.1205
     13 C13         3.3880   -7.7570   11.9850 C.ar      1    UNL1     0.1205
     14 C14         6.9330   -4.9760    7.4100 C.ar      1    UNL1    -0.0191
     15 C15         2.8550   -8.9910   11.6120 C.ar      1    UNL1    -0.0191
     16 C16         5.6140   -3.4750    6.0520 C.ar      1    UNL1    -0.0191
     17 C17         2.5760   -6.8010   12.5950 C.ar      1    UNL1    -0.0191
     18 C18         6.2290   -5.6500    5.2000 C.ar      1    UNL1     0.0610
     19 C19         0.6960   -8.3120   12.4570 C.ar      1    UNL1     0.0610
     20 C20         6.9040   -5.9260    6.3890 C.ar      1    UNL1    -0.0436
     21 C21         1.5080   -9.2680   11.8480 C.ar      1    UNL1    -0.0436
     22 C22         5.5840   -4.4250    5.0310 C.ar      1    UNL1    -0.0436
     23 C23         1.2290   -7.0790   12.8310 C.ar      1    UNL1    -0.0436
     24 C24         6.1970   -6.6410    4.1350 C.2       1    UNL1     0.2662
     25 C25        -0.7080   -8.6020   12.7040 C.2       1    UNL1     0.2662
     26 H1          5.8110   -6.5020    2.1060 H         1    UNL1     0.2883
     27 H2          4.4390   -6.2970    3.0980 H         1    UNL1     0.2883
     28 H3         -1.8120   -7.7170   14.2150 H         1    UNL1     0.2883
     29 H4         -1.0890   -9.1990   14.6490 H         1    UNL1     0.2883
     30 H5          6.9080   -8.4090    3.5150 H         1    UNL1     0.3009
     31 H6          7.4910   -7.8830    5.0280 H         1    UNL1     0.3009
     32 H7         -2.4380   -9.1740   11.8710 H         1    UNL1     0.3009
     33 H8         -1.1190   -9.0620   10.7980 H         1    UNL1     0.3009
     34 H9          5.1220   -3.7460   11.7850 H         1    UNL1     0.0267
     35 H10         6.5050   -3.5380   10.7160 H         1    UNL1     0.0267
     36 H11         3.6640   -3.5980   10.0860 H         1    UNL1     0.0298
     37 H12         4.6680   -4.6170    9.0480 H         1    UNL1     0.0298
     38 H13         6.9550   -5.6840   11.1020 H         1    UNL1     0.0298
     39 H14         5.5630   -6.0300   10.0780 H         1    UNL1     0.0298
     40 H15         4.3380   -2.3130    8.1800 H         1    UNL1     0.0696
     41 H16         5.2190   -1.7230    9.5730 H         1    UNL1     0.0696
     42 H17         5.8600   -6.3100   12.9740 H         1    UNL1     0.0696
     43 H18         4.3580   -5.5940   12.4550 H         1    UNL1     0.0696
     44 H19         7.4320   -5.1800    8.2900 H         1    UNL1     0.0654
     45 H20         3.4560   -9.6980   11.1610 H         1    UNL1     0.0654
     46 H21         5.1360   -2.5690    5.9280 H         1    UNL1     0.0654
     47 H22         2.9710   -5.8890   12.8710 H         1    UNL1     0.0654
     48 H23         7.3810   -6.8320    6.5140 H         1    UNL1     0.0627
     49 H24         1.1130  -10.1810   11.5720 H         1    UNL1     0.0627
     50 H25         5.0850   -4.2210    4.1510 H         1    UNL1     0.0627
     51 H26         0.6280   -6.3720   13.2820 H         1    UNL1     0.0627
@<TRIPOS>UNITY_ATOM_ATTR
5 1
charge 1
6 1
charge 1
@<TRIPOS>BOND
     1     1    10    1
     2     1    12    1
     3     2    11    1
     4     2    13    1
     5     3    24    1
     6     4    25    1
     7     5    24    2
     8     6    25    2
     9     7     8    1
    10     7     9    1
    11     8    10    1
    12     9    11    1
    13    12    14   ar
    14    12    16   ar
    15    13    15   ar
    16    13    17   ar
    17    14    20   ar
    18    15    21   ar
    19    16    22   ar
    20    17    23   ar
    21    18    20   ar
    22    18    22   ar
    23    18    24    1
    24    19    21   ar
    25    19    23   ar
    26    19    25    1
    27     3    26    1
    28     3    27    1
    29     4    28    1
    30     4    29    1
    31     5    30    1
    32     5    31    1
    33     6    32    1
    34     6    33    1
    35     7    34    1
    36     7    35    1
    37     8    36    1
    38     8    37    1
    39     9    38    1
    40     9    39    1
    41    10    40    1
    42    10    41    1
    43    11    42    1
    44    11    43    1
    45    14    44    1
    46    15    45    1
    47    16    46    1
    48    17    47    1
    49    20    48    1
    50    21    49    1
    51    22    50    1
    52    23    51    1
