#REMARK Cluster   8 of Poses:  1 Score: -7.61 kcal/mol
@<TRIPOS>MOLECULE
4735
 51 52 0 0 0
SMALL
GASTEIGER

@<TRIPOS>ATOM
      1 O1          5.7780    0.9910   10.3360 O.3       1    UNL1    -0.4920
      2 O2          5.1480   -2.5770    7.7050 O.3       1    UNL1    -0.4920
      3 N3         10.9260    4.8780   10.4420 N.pl3     1    UNL1    -0.2497
      4 N4          5.5960   -6.5460    2.6400 N.pl3     1    UNL1    -0.2497
      5 N5          9.8190    5.5700    8.5040 N.2       1    UNL1    -0.2884
      6 N6          6.9980   -7.5740    4.2010 N.2       1    UNL1    -0.2884
      7 C7          6.4520   -1.8740   11.1160 C.3       1    UNL1    -0.0469
      8 C8          5.2720   -1.0130   11.5780 C.3       1    UNL1    -0.0185
      9 C9          6.4960   -1.9830    9.5930 C.3       1    UNL1    -0.0185
     10 C10         5.6310    0.4660   11.6470 C.3       1    UNL1     0.0896
     11 C11         5.4050   -2.9030    9.0640 C.3       1    UNL1     0.0896
     12 C12         6.7750    1.9120   10.1460 C.ar      1    UNL1     0.1205
     13 C13         5.4030   -3.5530    6.7760 C.ar      1    UNL1     0.1205
     14 C14         7.9970    1.5150    9.6030 C.ar      1    UNL1    -0.0191
     15 C15         6.0460   -4.7300    7.1600 C.ar      1    UNL1    -0.0191
     16 C16         6.5670    3.2470   10.4930 C.ar      1    UNL1    -0.0191
     17 C17         5.0170   -3.3690    5.4480 C.ar      1    UNL1    -0.0191
     18 C18         8.8040    3.7870    9.7550 C.ar      1    UNL1     0.0610
     19 C19         5.9180   -5.5400    4.8870 C.ar      1    UNL1     0.0610
     20 C20         9.0120    2.4520    9.4080 C.ar      1    UNL1    -0.0436
     21 C21         6.3030   -5.7230    6.2150 C.ar      1    UNL1    -0.0436
     22 C22         7.5820    4.1850   10.2970 C.ar      1    UNL1    -0.0436
     23 C23         5.2750   -4.3630    4.5040 C.ar      1    UNL1    -0.0436
     24 C24         9.8610    4.7650    9.5510 C.2       1    UNL1     0.2662
     25 C25         6.1850   -6.5760    3.9020 C.2       1    UNL1     0.2662
     26 H1         11.0800    5.7260   10.9190 H         1    UNL1     0.2883
     27 H2         11.5230    4.1120   10.5960 H         1    UNL1     0.2883
     28 H3          4.6680   -6.8540    2.5220 H         1    UNL1     0.2883
     29 H4          6.1070   -6.2160    1.8660 H         1    UNL1     0.2883
     30 H5         10.5340    6.2320    8.3640 H         1    UNL1     0.3009
     31 H6          9.0740    5.5070    7.8640 H         1    UNL1     0.3009
     32 H7          7.1810   -8.2760    3.5360 H         1    UNL1     0.3009
     33 H8          7.4220   -7.6150    5.0890 H         1    UNL1     0.3009
     34 H9          6.3530   -2.8540   11.5330 H         1    UNL1     0.0267
     35 H10         7.3580   -1.4110   11.4480 H         1    UNL1     0.0267
     36 H11         4.9670   -1.3400   12.5500 H         1    UNL1     0.0298
     37 H12         4.4830   -1.1270   10.8640 H         1    UNL1     0.0298
     38 H13         7.4490   -2.3710    9.3000 H         1    UNL1     0.0298
     39 H14         6.3370   -1.0070    9.1840 H         1    UNL1     0.0298
     40 H15         4.8530    0.9960   12.1560 H         1    UNL1     0.0696
     41 H16         6.5530    0.5800   12.1770 H         1    UNL1     0.0696
     42 H17         5.7270   -3.9210    9.1340 H         1    UNL1     0.0696
     43 H18         4.5130   -2.7780    9.6420 H         1    UNL1     0.0696
     44 H19         8.1510    0.5270    9.3470 H         1    UNL1     0.0654
     45 H20         6.3310   -4.8650    8.1420 H         1    UNL1     0.0654
     46 H21         5.6630    3.5410   10.8940 H         1    UNL1     0.0654
     47 H22         4.5420   -2.4990    5.1640 H         1    UNL1     0.0654
     48 H23         9.9160    2.1580    9.0070 H         1    UNL1     0.0627
     49 H24         6.7790   -6.5940    6.4990 H         1    UNL1     0.0627
     50 H25         7.4280    5.1720   10.5540 H         1    UNL1     0.0627
     51 H26         4.9900   -4.2270    3.5210 H         1    UNL1     0.0627
@<TRIPOS>UNITY_ATOM_ATTR
5 1
charge 1
6 1
charge 1
@<TRIPOS>BOND
     1     1    10    1
     2     1    12    1
     3     2    11    1
     4     2    13    1
     5     3    24    1
     6     4    25    1
     7     5    24    2
     8     6    25    2
     9     7     8    1
    10     7     9    1
    11     8    10    1
    12     9    11    1
    13    12    14   ar
    14    12    16   ar
    15    13    15   ar
    16    13    17   ar
    17    14    20   ar
    18    15    21   ar
    19    16    22   ar
    20    17    23   ar
    21    18    20   ar
    22    18    22   ar
    23    18    24    1
    24    19    21   ar
    25    19    23   ar
    26    19    25    1
    27     3    26    1
    28     3    27    1
    29     4    28    1
    30     4    29    1
    31     5    30    1
    32     5    31    1
    33     6    32    1
    34     6    33    1
    35     7    34    1
    36     7    35    1
    37     8    36    1
    38     8    37    1
    39     9    38    1
    40     9    39    1
    41    10    40    1
    42    10    41    1
    43    11    42    1
    44    11    43    1
    45    14    44    1
    46    15    45    1
    47    16    46    1
    48    17    47    1
    49    20    48    1
    50    21    49    1
    51    22    50    1
    52    23    51    1
