#REMARK Cluster   2 of Poses:  3 Score: -8.35 kcal/mol
@<TRIPOS>MOLECULE
4735
 51 52 0 0 0
SMALL
GASTEIGER

@<TRIPOS>ATOM
      1 O1          7.2400    2.6730   12.9760 O.3       1    UNL1    -0.4920
      2 O2          6.7940   -2.2460    7.9910 O.3       1    UNL1    -0.4920
      3 N3          1.6810    5.4650   14.6800 N.pl3     1    UNL1    -0.2497
      4 N4          5.9990   -6.5470    3.2510 N.pl3     1    UNL1    -0.2497
      5 N5          2.8080    7.2140   13.6160 N.2       1    UNL1    -0.2884
      6 N6          3.8190   -5.7780    3.5920 N.2       1    UNL1    -0.2884
      7 C7          5.9980    0.2560   10.4170 C.3       1    UNL1    -0.0469
      8 C8          6.5140    0.7030   11.7870 C.3       1    UNL1    -0.0185
      9 C9          6.4300   -1.1750   10.1020 C.3       1    UNL1    -0.0185
     10 C10         7.2750    2.0220   11.7140 C.3       1    UNL1     0.0896
     11 C11         5.7850   -1.6870    8.8210 C.3       1    UNL1     0.0896
     12 C12         6.1570    3.4750   13.2290 C.ar      1    UNL1     0.1205
     13 C13         6.3780   -3.0970    7.0000 C.ar      1    UNL1     0.1205
     14 C14         5.5360    4.1590   12.1840 C.ar      1    UNL1    -0.0191
     15 C15         5.6940   -2.5950    5.8920 C.ar      1    UNL1    -0.0191
     16 C16         5.6760    3.6060   14.5320 C.ar      1    UNL1    -0.0191
     17 C17         6.6400   -4.4630    7.0970 C.ar      1    UNL1    -0.0191
     18 C18         3.9520    5.1040   13.7440 C.ar      1    UNL1     0.0610
     19 C19         5.5350   -4.8260    4.9800 C.ar      1    UNL1     0.0610
     20 C20         4.4340    4.9730   12.4410 C.ar      1    UNL1    -0.0436
     21 C21         5.2730   -3.4600    4.8820 C.ar      1    UNL1    -0.0436
     22 C22         4.5730    4.4210   14.7890 C.ar      1    UNL1    -0.0436
     23 C23         6.2190   -5.3280    6.0870 C.ar      1    UNL1    -0.0436
     24 C24         2.8020    5.9530   14.0120 C.2       1    UNL1     0.2662
     25 C25         5.0970   -5.7280    3.9260 C.2       1    UNL1     0.2662
     26 H1          1.3940    4.5330   14.5440 H         1    UNL1     0.2883
     27 H2          1.1750    6.0520   15.2870 H         1    UNL1     0.2883
     28 H3          6.9670   -6.4340    3.3910 H         1    UNL1     0.2883
     29 H4          5.6690   -7.2380    2.6320 H         1    UNL1     0.2883
     30 H5          2.0310    7.7900   13.7970 H         1    UNL1     0.3009
     31 H6          3.5900    7.5770   13.1410 H         1    UNL1     0.3009
     32 H7          3.5200   -6.3880    2.8800 H         1    UNL1     0.3009
     33 H8          3.1670   -5.2050    4.0560 H         1    UNL1     0.3009
     34 H9          6.3880    0.9110    9.6660 H         1    UNL1     0.0267
     35 H10         4.9280    0.2910   10.4310 H         1    UNL1     0.0267
     36 H11         7.1690   -0.0510   12.1720 H         1    UNL1     0.0298
     37 H12         5.6680    0.8480   12.4260 H         1    UNL1     0.0298
     38 H13         6.1430   -1.8110   10.9130 H         1    UNL1     0.0298
     39 H14         7.4910   -1.1810    9.9670 H         1    UNL1     0.0298
     40 H15         8.2920    1.8300   11.4420 H         1    UNL1     0.0696
     41 H16         6.8160    2.6520   10.9800 H         1    UNL1     0.0696
     42 H17         5.0600   -2.4370    9.0590 H         1    UNL1     0.0696
     43 H18         5.3010   -0.8810    8.3110 H         1    UNL1     0.0696
     44 H19         5.8930    4.0620   11.2200 H         1    UNL1     0.0654
     45 H20         5.5000   -1.5840    5.8200 H         1    UNL1     0.0654
     46 H21         6.1350    3.1000   15.3050 H         1    UNL1     0.0654
     47 H22         7.1460   -4.8340    7.9160 H         1    UNL1     0.0654
     48 H23         3.9740    5.4790   11.6680 H         1    UNL1     0.0627
     49 H24         4.7670   -3.0890    4.0630 H         1    UNL1     0.0627
     50 H25         4.2170    4.5180   15.7530 H         1    UNL1     0.0627
     51 H26         6.4130   -6.3390    6.1590 H         1    UNL1     0.0627
@<TRIPOS>UNITY_ATOM_ATTR
5 1
charge 1
6 1
charge 1
@<TRIPOS>BOND
     1     1    10    1
     2     1    12    1
     3     2    11    1
     4     2    13    1
     5     3    24    1
     6     4    25    1
     7     5    24    2
     8     6    25    2
     9     7     8    1
    10     7     9    1
    11     8    10    1
    12     9    11    1
    13    12    14   ar
    14    12    16   ar
    15    13    15   ar
    16    13    17   ar
    17    14    20   ar
    18    15    21   ar
    19    16    22   ar
    20    17    23   ar
    21    18    20   ar
    22    18    22   ar
    23    18    24    1
    24    19    21   ar
    25    19    23   ar
    26    19    25    1
    27     3    26    1
    28     3    27    1
    29     4    28    1
    30     4    29    1
    31     5    30    1
    32     5    31    1
    33     6    32    1
    34     6    33    1
    35     7    34    1
    36     7    35    1
    37     8    36    1
    38     8    37    1
    39     9    38    1
    40     9    39    1
    41    10    40    1
    42    10    41    1
    43    11    42    1
    44    11    43    1
    45    14    44    1
    46    15    45    1
    47    16    46    1
    48    17    47    1
    49    20    48    1
    50    21    49    1
    51    22    50    1
    52    23    51    1
