#REMARK Cluster  12 of Poses:  1 Score: -7.06 kcal/mol
@<TRIPOS>MOLECULE
65130
 54 55 0 0 0
SMALL
GASTEIGER

@<TRIPOS>ATOM
      1 O1          6.6900   -2.4260    7.5990 O.3       1    UNL1    -0.4920
      2 O2          3.3690   -3.0200   12.7960 O.3       1    UNL1    -0.4920
      3 N3          6.7990   -7.9610    4.2880 N.pl3     1    UNL1    -0.2497
      4 N4          3.8040   -9.1930   10.9730 N.pl3     1    UNL1    -0.2497
      5 N5          5.4890   -6.5900    2.9210 N.2       1    UNL1    -0.2884
      6 N6          5.8890   -8.8160   11.9580 N.2       1    UNL1    -0.2884
      7 C7          6.7820   -1.4130   10.5580 C.3       1    UNL1    -0.0499
      8 C8          6.3800   -1.2520   12.0250 C.3       1    UNL1    -0.0499
      9 C9          6.0050   -2.5460    9.8900 C.3       1    UNL1    -0.0186
     10 C10         4.8610   -1.2490   12.1880 C.3       1    UNL1    -0.0186
     11 C11         5.5940   -2.1830    8.4700 C.3       1    UNL1     0.0896
     12 C12         4.4130   -2.1940   13.2930 C.3       1    UNL1     0.0896
     13 C13         6.5670   -3.4780    6.7290 C.ar      1    UNL1     0.1205
     14 C14         3.6930   -4.3200   12.5080 C.ar      1    UNL1     0.1205
     15 C15         5.5800   -3.4570    5.7440 C.ar      1    UNL1    -0.0191
     16 C16         3.9260   -4.7050   11.1880 C.ar      1    UNL1    -0.0191
     17 C17         7.4300   -4.5690    6.8280 C.ar      1    UNL1    -0.0191
     18 C18         3.7910   -5.2590   13.5350 C.ar      1    UNL1    -0.0191
     19 C19         6.3190   -5.6180    4.9560 C.ar      1    UNL1     0.0610
     20 C20         4.3560   -6.9660   11.9220 C.ar      1    UNL1     0.0610
     21 C21         5.4560   -4.5270    4.8570 C.ar      1    UNL1    -0.0436
     22 C22         4.2580   -6.0280   10.8950 C.ar      1    UNL1    -0.0436
     23 C23         7.3060   -5.6390    5.9420 C.ar      1    UNL1    -0.0436
     24 C24         4.1220   -6.5810   13.2430 C.ar      1    UNL1    -0.0436
     25 C25         6.1910   -6.7330    4.0320 C.2       1    UNL1     0.2662
     26 C26         4.7020   -8.3450   11.6180 C.2       1    UNL1     0.2662
     27 H1          7.2120   -8.1320    5.1650 H         1    UNL1     0.2883
     28 H2          6.8150   -8.6570    3.5920 H         1    UNL1     0.2883
     29 H3          3.1070   -9.6580   11.4900 H         1    UNL1     0.2883
     30 H4          3.8650   -9.3270    9.9990 H         1    UNL1     0.2883
     31 H5          5.4010   -7.3440    2.2940 H         1    UNL1     0.3009
     32 H6          5.0550   -5.7300    2.7210 H         1    UNL1     0.3009
     33 H7          6.1250   -9.7500   11.7530 H         1    UNL1     0.3009
     34 H8          6.5360   -8.2340   12.4170 H         1    UNL1     0.3009
     35 H9          7.8290   -1.6310   10.5060 H         1    UNL1     0.0266
     36 H10         6.5590   -0.5020   10.0450 H         1    UNL1     0.0266
     37 H11         6.7710   -0.3270   12.3940 H         1    UNL1     0.0266
     38 H12         6.7770   -2.0780   12.5770 H         1    UNL1     0.0266
     39 H13         5.1260   -2.7490   10.4650 H         1    UNL1     0.0298
     40 H14         6.6410   -3.4060    9.8450 H         1    UNL1     0.0298
     41 H15         4.4130   -1.5560   11.2660 H         1    UNL1     0.0298
     42 H16         4.5560   -0.2580   12.4510 H         1    UNL1     0.0298
     43 H17         4.7590   -2.7830    8.1740 H         1    UNL1     0.0696
     44 H18         5.3160   -1.1510    8.4250 H         1    UNL1     0.0696
     45 H19         5.2370   -2.8030   13.6010 H         1    UNL1     0.0696
     46 H20         4.0620   -1.6310   14.1320 H         1    UNL1     0.0696
     47 H21         4.9410   -2.6500    5.6700 H         1    UNL1     0.0654
     48 H22         3.8540   -4.0110   10.4270 H         1    UNL1     0.0654
     49 H23         8.1600   -4.5850    7.5570 H         1    UNL1     0.0654
     50 H24         3.6180   -4.9740   14.5120 H         1    UNL1     0.0654
     51 H25         4.7260   -4.5110    4.1280 H         1    UNL1     0.0627
     52 H26         4.4310   -6.3130    9.9180 H         1    UNL1     0.0627
     53 H27         7.9450   -6.4470    6.0150 H         1    UNL1     0.0627
     54 H28         4.1950   -7.2750   14.0030 H         1    UNL1     0.0627
@<TRIPOS>UNITY_ATOM_ATTR
5 1
charge 1
6 1
charge 1
@<TRIPOS>BOND
     1     1    11    1
     2     1    13    1
     3     2    12    1
     4     2    14    1
     5     3    25    1
     6     4    26    1
     7     5    25    2
     8     6    26    2
     9     7     8    1
    10     7     9    1
    11     8    10    1
    12     9    11    1
    13    10    12    1
    14    13    15   ar
    15    13    17   ar
    16    14    16   ar
    17    14    18   ar
    18    15    21   ar
    19    16    22   ar
    20    17    23   ar
    21    18    24   ar
    22    19    21   ar
    23    19    23   ar
    24    19    25    1
    25    20    22   ar
    26    20    24   ar
    27    20    26    1
    28     3    27    1
    29     3    28    1
    30     4    29    1
    31     4    30    1
    32     5    31    1
    33     5    32    1
    34     6    33    1
    35     6    34    1
    36     7    35    1
    37     7    36    1
    38     8    37    1
    39     8    38    1
    40     9    39    1
    41     9    40    1
    42    10    41    1
    43    10    42    1
    44    11    43    1
    45    11    44    1
    46    12    45    1
    47    12    46    1
    48    15    47    1
    49    16    48    1
    50    17    49    1
    51    18    50    1
    52    21    51    1
    53    22    52    1
    54    23    53    1
    55    24    54    1
