#REMARK Cluster  13 of Poses:  1 Score: -7.04 kcal/mol
@<TRIPOS>MOLECULE
65130
 54 55 0 0 0
SMALL
GASTEIGER

@<TRIPOS>ATOM
      1 O1          7.4790   -3.7340    8.5370 O.3       1    UNL1    -0.4920
      2 O2          3.9140   -7.4100   12.2000 O.3       1    UNL1    -0.4920
      3 N3          3.9290   -5.5980    3.4830 N.pl3     1    UNL1    -0.2497
      4 N4         -2.1930   -9.4570   12.5240 N.pl3     1    UNL1    -0.2497
      5 N5          5.9710   -6.6590    3.0760 N.2       1    UNL1    -0.2884
      6 N6         -1.5500   -9.4580   14.7710 N.2       1    UNL1    -0.2884
      7 C7          7.5740   -6.0420   10.9510 C.3       1    UNL1    -0.0499
      8 C8          6.0940   -6.4280   10.9970 C.3       1    UNL1    -0.0499
      9 C9          7.7490   -4.5350   10.7770 C.3       1    UNL1    -0.0186
     10 C10         5.9160   -7.9450   10.9990 C.3       1    UNL1    -0.0186
     11 C11         6.7780   -3.9710    9.7500 C.3       1    UNL1     0.0896
     12 C12         4.9310   -8.3930   12.0700 C.3       1    UNL1     0.0896
     13 C13         6.9320   -4.2570    7.3940 C.ar      1    UNL1     0.1205
     14 C14         2.6590   -7.8560   12.5210 C.ar      1    UNL1     0.1205
     15 C15         6.1530   -3.4520    6.5630 C.ar      1    UNL1    -0.0191
     16 C16         1.9040   -7.1850   13.4830 C.ar      1    UNL1    -0.0191
     17 C17         7.1560   -5.5930    7.0610 C.ar      1    UNL1    -0.0191
     18 C18         2.1350   -8.9810   11.8830 C.ar      1    UNL1    -0.0191
     19 C19         5.8220   -5.3190    5.0660 C.ar      1    UNL1     0.0610
     20 C20         0.1020   -8.7630   13.1700 C.ar      1    UNL1     0.0610
     21 C21         5.5980   -3.9840    5.3990 C.ar      1    UNL1    -0.0436
     22 C22         0.6260   -7.6380   13.8070 C.ar      1    UNL1    -0.0436
     23 C23         6.6020   -6.1240    5.8970 C.ar      1    UNL1    -0.0436
     24 C24         0.8560   -9.4340   12.2080 C.ar      1    UNL1    -0.0436
     25 C25         5.2450   -5.8740    3.8520 C.2       1    UNL1     0.2662
     26 C26        -1.2310   -9.2350   13.5080 C.2       1    UNL1     0.2662
     27 H1          3.7420   -5.1450    2.6290 H         1    UNL1     0.2883
     28 H2          3.1870   -5.8550    4.0770 H         1    UNL1     0.2883
     29 H3         -2.9070   -8.7960   12.3760 H         1    UNL1     0.2883
     30 H4         -2.1590  -10.2750   11.9780 H         1    UNL1     0.2883
     31 H5          5.5820   -7.0350    2.2540 H         1    UNL1     0.3009
     32 H6          6.9010   -6.8680    3.3210 H         1    UNL1     0.3009
     33 H7         -2.4520   -9.7780   15.0020 H         1    UNL1     0.3009
     34 H8         -0.8860   -9.3040   15.4810 H         1    UNL1     0.3009
     35 H9          8.0400   -6.5440   10.1300 H         1    UNL1     0.0266
     36 H10         8.0260   -6.3300   11.8780 H         1    UNL1     0.0266
     37 H11         5.6010   -6.0210   10.1390 H         1    UNL1     0.0266
     38 H12         5.6710   -6.0380   11.8980 H         1    UNL1     0.0266
     39 H13         8.7500   -4.3370   10.4540 H         1    UNL1     0.0298
     40 H14         7.5510   -4.0650   11.7180 H         1    UNL1     0.0298
     41 H15         6.8640   -8.4060   11.1840 H         1    UNL1     0.0298
     42 H16         5.5280   -8.2370   10.0450 H         1    UNL1     0.0298
     43 H17         5.9890   -4.6740    9.5780 H         1    UNL1     0.0696
     44 H18         6.3580   -3.0560   10.1120 H         1    UNL1     0.0696
     45 H19         4.4930   -9.3280   11.7870 H         1    UNL1     0.0696
     46 H20         5.4410   -8.5140   13.0030 H         1    UNL1     0.0696
     47 H21         5.9870   -2.4640    6.8090 H         1    UNL1     0.0654
     48 H22         2.2920   -6.3520   13.9540 H         1    UNL1     0.0654
     49 H23         7.7330   -6.1880    7.6760 H         1    UNL1     0.0654
     50 H24         2.6930   -9.4780   11.1710 H         1    UNL1     0.0654
     51 H25         5.0220   -3.3880    4.7830 H         1    UNL1     0.0627
     52 H26         0.0680   -7.1410   14.5190 H         1    UNL1     0.0627
     53 H27         6.7680   -7.1120    5.6510 H         1    UNL1     0.0627
     54 H28         0.4690  -10.2660   11.7370 H         1    UNL1     0.0627
@<TRIPOS>UNITY_ATOM_ATTR
5 1
charge 1
6 1
charge 1
@<TRIPOS>BOND
     1     1    11    1
     2     1    13    1
     3     2    12    1
     4     2    14    1
     5     3    25    1
     6     4    26    1
     7     5    25    2
     8     6    26    2
     9     7     8    1
    10     7     9    1
    11     8    10    1
    12     9    11    1
    13    10    12    1
    14    13    15   ar
    15    13    17   ar
    16    14    16   ar
    17    14    18   ar
    18    15    21   ar
    19    16    22   ar
    20    17    23   ar
    21    18    24   ar
    22    19    21   ar
    23    19    23   ar
    24    19    25    1
    25    20    22   ar
    26    20    24   ar
    27    20    26    1
    28     3    27    1
    29     3    28    1
    30     4    29    1
    31     4    30    1
    32     5    31    1
    33     5    32    1
    34     6    33    1
    35     6    34    1
    36     7    35    1
    37     7    36    1
    38     8    37    1
    39     8    38    1
    40     9    39    1
    41     9    40    1
    42    10    41    1
    43    10    42    1
    44    11    43    1
    45    11    44    1
    46    12    45    1
    47    12    46    1
    48    15    47    1
    49    16    48    1
    50    17    49    1
    51    18    50    1
    52    21    51    1
    53    22    52    1
    54    23    53    1
    55    24    54    1
