#REMARK Cluster   9 of Poses:  1 Score: -7.66 kcal/mol
@<TRIPOS>MOLECULE
65130
 54 55 0 0 0
SMALL
GASTEIGER

@<TRIPOS>ATOM
      1 O1          6.8170   -3.1980    8.4750 O.3       1    UNL1    -0.4920
      2 O2          4.6280    0.1520   14.1110 O.3       1    UNL1    -0.4920
      3 N3          5.5090   -6.3530    3.0040 N.pl3     1    UNL1    -0.2497
      4 N4          1.4090    5.7310   14.4600 N.pl3     1    UNL1    -0.2497
      5 N5          6.5970   -7.9870    4.2720 N.2       1    UNL1    -0.2884
      6 N6          2.0190    5.3690   16.6860 N.2       1    UNL1    -0.2884
      7 C7          4.2710   -2.5040    9.9870 C.3       1    UNL1    -0.0499
      8 C8          3.6490   -2.2010   11.3510 C.3       1    UNL1    -0.0499
      9 C9          5.5050   -1.6400    9.7340 C.3       1    UNL1    -0.0186
     10 C10         4.4420   -1.1310   12.0980 C.3       1    UNL1    -0.0186
     11 C11         6.1420   -1.9500    8.3870 C.3       1    UNL1     0.0896
     12 C12         3.8450   -0.8450   13.4690 C.3       1    UNL1     0.0896
     13 C13         6.6520   -4.0650    7.4270 C.ar      1    UNL1     0.1205
     14 C14         3.9940    1.3240   14.4320 C.ar      1    UNL1     0.1205
     15 C15         5.8080   -3.7280    6.3690 C.ar      1    UNL1    -0.0191
     16 C16         2.9870    1.3300   15.3980 C.ar      1    UNL1    -0.0191
     17 C17         7.3300   -5.2840    7.4170 C.ar      1    UNL1    -0.0191
     18 C18         4.3570    2.5110   13.7950 C.ar      1    UNL1    -0.0191
     19 C19         6.3200   -5.8290    5.2920 C.ar      1    UNL1     0.0610
     20 C20         2.7070    3.7100   15.0890 C.ar      1    UNL1     0.0610
     21 C21         5.6420   -4.6100    5.3010 C.ar      1    UNL1    -0.0436
     22 C22         2.3430    2.5240   15.7260 C.ar      1    UNL1    -0.0436
     23 C23         7.1640   -6.1660    6.3500 C.ar      1    UNL1    -0.0436
     24 C24         3.7130    3.7040   14.1240 C.ar      1    UNL1    -0.0436
     25 C25         6.1470   -6.7490    4.1780 C.2       1    UNL1     0.2662
     26 C26         2.0360    4.9540   15.4320 C.2       1    UNL1     0.2662
     27 H1          6.0340   -6.2070    2.1840 H         1    UNL1     0.2883
     28 H2          4.5340   -6.2210    2.9940 H         1    UNL1     0.2883
     29 H3          1.1840    6.6710   14.6500 H         1    UNL1     0.2883
     30 H4          1.1900    5.3410   13.5830 H         1    UNL1     0.2883
     31 H5          6.4820   -8.6110    3.5190 H         1    UNL1     0.3009
     32 H6          7.0480   -8.2860    5.0940 H         1    UNL1     0.3009
     33 H7          1.5650    6.2110   16.9200 H         1    UNL1     0.3009
     34 H8          2.4590    4.8360   17.3870 H         1    UNL1     0.3009
     35 H9          3.5480   -2.3100    9.2230 H         1    UNL1     0.0266
     36 H10         4.5710   -3.5310    9.9730 H         1    UNL1     0.0266
     37 H11         3.6370   -3.0980   11.9350 H         1    UNL1     0.0266
     38 H12         2.6550   -1.8370   11.1950 H         1    UNL1     0.0266
     39 H13         6.2210   -1.8230   10.5080 H         1    UNL1     0.0298
     40 H14         5.1990   -0.6140    9.7310 H         1    UNL1     0.0298
     41 H15         4.4360   -0.2290   11.5220 H         1    UNL1     0.0298
     42 H16         5.4400   -1.4910   12.2360 H         1    UNL1     0.0298
     43 H17         5.3840   -2.0040    7.6350 H         1    UNL1     0.0696
     44 H18         6.8370   -1.1790    8.1280 H         1    UNL1     0.0696
     45 H19         2.8400   -0.4970   13.3580 H         1    UNL1     0.0696
     46 H20         3.8430   -1.7390   14.0570 H         1    UNL1     0.0696
     47 H21         5.3070   -2.8260    6.3760 H         1    UNL1     0.0654
     48 H22         2.7180    0.4530   15.8690 H         1    UNL1     0.0654
     49 H23         7.9550   -5.5340    8.2000 H         1    UNL1     0.0654
     50 H24         5.1020    2.5060   13.0810 H         1    UNL1     0.0654
     51 H25         5.0180   -4.3610    4.5180 H         1    UNL1     0.0627
     52 H26         1.5990    2.5280   16.4400 H         1    UNL1     0.0627
     53 H27         7.6660   -7.0680    6.3430 H         1    UNL1     0.0627
     54 H28         3.9820    4.5810   13.6520 H         1    UNL1     0.0627
@<TRIPOS>UNITY_ATOM_ATTR
5 1
charge 1
6 1
charge 1
@<TRIPOS>BOND
     1     1    11    1
     2     1    13    1
     3     2    12    1
     4     2    14    1
     5     3    25    1
     6     4    26    1
     7     5    25    2
     8     6    26    2
     9     7     8    1
    10     7     9    1
    11     8    10    1
    12     9    11    1
    13    10    12    1
    14    13    15   ar
    15    13    17   ar
    16    14    16   ar
    17    14    18   ar
    18    15    21   ar
    19    16    22   ar
    20    17    23   ar
    21    18    24   ar
    22    19    21   ar
    23    19    23   ar
    24    19    25    1
    25    20    22   ar
    26    20    24   ar
    27    20    26    1
    28     3    27    1
    29     3    28    1
    30     4    29    1
    31     4    30    1
    32     5    31    1
    33     5    32    1
    34     6    33    1
    35     6    34    1
    36     7    35    1
    37     7    36    1
    38     8    37    1
    39     8    38    1
    40     9    39    1
    41     9    40    1
    42    10    41    1
    43    10    42    1
    44    11    43    1
    45    11    44    1
    46    12    45    1
    47    12    46    1
    48    15    47    1
    49    16    48    1
    50    17    49    1
    51    18    50    1
    52    21    51    1
    53    22    52    1
    54    23    53    1
    55    24    54    1
