#REMARK Cluster  14 of Poses:  1 Score: -7.03 kcal/mol
@<TRIPOS>MOLECULE
65130
 54 55 0 0 0
SMALL
GASTEIGER

@<TRIPOS>ATOM
      1 O1          5.7550    1.3330   13.3420 O.3       1    UNL1    -0.4920
      2 O2          6.7930   -4.9880   10.6180 O.3       1    UNL1    -0.4920
      3 N3          1.4060    6.0060   14.2620 N.pl3     1    UNL1    -0.2497
      4 N4          5.9580   -5.0090    4.2220 N.pl3     1    UNL1    -0.2497
      5 N5          3.4260    7.1510   14.5270 N.2       1    UNL1    -0.2884
      6 N6          7.3850   -6.8320    4.5430 N.2       1    UNL1    -0.2884
      7 C7          6.8590   -0.3630   10.6700 C.3       1    UNL1    -0.0499
      8 C8          6.2160   -1.6660   10.1930 C.3       1    UNL1    -0.0499
      9 C9          5.8010    0.6750   11.0400 C.3       1    UNL1    -0.0186
     10 C10         7.2680   -2.7430    9.9350 C.3       1    UNL1    -0.0186
     11 C11         5.2070    0.4060   12.4160 C.3       1    UNL1     0.0896
     12 C12         7.3290   -3.7530   11.0720 C.3       1    UNL1     0.0896
     13 C13         5.0350    2.4760   13.5730 C.ar      1    UNL1     0.1205
     14 C14         6.7710   -5.1930    9.2630 C.ar      1    UNL1     0.1205
     15 C15         5.1710    3.5700   12.7190 C.ar      1    UNL1    -0.0191
     16 C16         7.8890   -5.7230    8.6190 C.ar      1    UNL1    -0.0191
     17 C17         4.1650    2.5450   14.6610 C.ar      1    UNL1    -0.0191
     18 C18         5.6290   -4.8730    8.5280 C.ar      1    UNL1    -0.0191
     19 C19         3.5660    4.8010   14.0400 C.ar      1    UNL1     0.0610
     20 C20         6.7240   -5.6130    6.5060 C.ar      1    UNL1     0.0610
     21 C21         4.4360    4.7330   12.9520 C.ar      1    UNL1    -0.0436
     22 C22         7.8650   -5.9330    7.2410 C.ar      1    UNL1    -0.0436
     23 C23         3.4300    3.7070   14.8950 C.ar      1    UNL1    -0.0436
     24 C24         5.6060   -5.0830    7.1490 C.ar      1    UNL1    -0.0436
     25 C25         2.7990    6.0130   14.2840 C.2       1    UNL1     0.2662
     26 C26         6.6990   -5.8320    5.0680 C.2       1    UNL1     0.2662
     27 H1          0.9260    5.3680   13.6860 H         1    UNL1     0.2883
     28 H2          0.9020    6.6390   14.8240 H         1    UNL1     0.2883
     29 H3          5.1360   -4.5780    4.5500 H         1    UNL1     0.2883
     30 H4          6.2570   -4.8590    3.2960 H         1    UNL1     0.2883
     31 H5          2.9090    7.9720   14.6920 H         1    UNL1     0.3009
     32 H6          4.4100    7.1770   14.5430 H         1    UNL1     0.3009
     33 H7          7.3700   -6.9820    3.5700 H         1    UNL1     0.3009
     34 H8          7.9120   -7.4260    5.1250 H         1    UNL1     0.3009
     35 H9          7.4730    0.0290    9.8880 H         1    UNL1     0.0266
     36 H10         7.4430   -0.5750   11.5420 H         1    UNL1     0.0266
     37 H11         5.6800   -1.4790    9.2860 H         1    UNL1     0.0266
     38 H12         5.5550   -2.0170   10.9580 H         1    UNL1     0.0266
     39 H13         5.0180    0.6470   10.3120 H         1    UNL1     0.0298
     40 H14         6.2700    1.6370   11.0610 H         1    UNL1     0.0298
     41 H15         8.2250   -2.2760    9.8340 H         1    UNL1     0.0298
     42 H16         7.0000   -3.2640    9.0390 H         1    UNL1     0.0298
     43 H17         4.1440    0.5230   12.3770 H         1    UNL1     0.0696
     44 H18         5.4380   -0.5930   12.7220 H         1    UNL1     0.0696
     45 H19         8.3460   -3.8920   11.3750 H         1    UNL1     0.0696
     46 H20         6.7610   -3.3960   11.9060 H         1    UNL1     0.0696
     47 H21         5.8140    3.5200   11.9140 H         1    UNL1     0.0654
     48 H22         8.7330   -5.9590    9.1630 H         1    UNL1     0.0654
     49 H23         4.0640    1.7350   15.2930 H         1    UNL1     0.0654
     50 H24         4.8010   -4.4810    9.0040 H         1    UNL1     0.0654
     51 H25         4.5360    5.5420   12.3200 H         1    UNL1     0.0627
     52 H26         8.6930   -6.3250    6.7640 H         1    UNL1     0.0627
     53 H27         2.7870    3.7580   15.7000 H         1    UNL1     0.0627
     54 H28         4.7610   -4.8460    6.6060 H         1    UNL1     0.0627
@<TRIPOS>UNITY_ATOM_ATTR
5 1
charge 1
6 1
charge 1
@<TRIPOS>BOND
     1     1    11    1
     2     1    13    1
     3     2    12    1
     4     2    14    1
     5     3    25    1
     6     4    26    1
     7     5    25    2
     8     6    26    2
     9     7     8    1
    10     7     9    1
    11     8    10    1
    12     9    11    1
    13    10    12    1
    14    13    15   ar
    15    13    17   ar
    16    14    16   ar
    17    14    18   ar
    18    15    21   ar
    19    16    22   ar
    20    17    23   ar
    21    18    24   ar
    22    19    21   ar
    23    19    23   ar
    24    19    25    1
    25    20    22   ar
    26    20    24   ar
    27    20    26    1
    28     3    27    1
    29     3    28    1
    30     4    29    1
    31     4    30    1
    32     5    31    1
    33     5    32    1
    34     6    33    1
    35     6    34    1
    36     7    35    1
    37     7    36    1
    38     8    37    1
    39     8    38    1
    40     9    39    1
    41     9    40    1
    42    10    41    1
    43    10    42    1
    44    11    43    1
    45    11    44    1
    46    12    45    1
    47    12    46    1
    48    15    47    1
    49    16    48    1
    50    17    49    1
    51    18    50    1
    52    21    51    1
    53    22    52    1
    54    23    53    1
    55    24    54    1
