#REMARK Cluster  15 of Poses:  1 Score: -6.76 kcal/mol
@<TRIPOS>MOLECULE
65130
 54 55 0 0 0
SMALL
GASTEIGER

@<TRIPOS>ATOM
      1 O1          5.7870   -2.4610    7.8180 O.3       1    UNL1    -0.4920
      2 O2          4.5950   -8.2280   11.1940 O.3       1    UNL1    -0.4920
      3 N3          5.6590   -6.5340    2.8180 N.pl3     1    UNL1    -0.2497
      4 N4         -1.3180   -8.2790   13.7730 N.pl3     1    UNL1    -0.2497
      5 N5          6.7990   -7.7730    4.4390 N.2       1    UNL1    -0.2884
      6 N6         -1.7630   -8.6020   11.5010 N.2       1    UNL1    -0.2884
      7 C7          5.3950   -4.2830   10.2550 C.3       1    UNL1    -0.0499
      8 C8          5.7240   -4.8720   11.6280 C.3       1    UNL1    -0.0499
      9 C9          6.6640   -3.9510    9.4740 C.3       1    UNL1    -0.0186
     10 C10         4.7440   -5.9810   12.0070 C.3       1    UNL1    -0.0186
     11 C11         6.6440   -2.5220    8.9490 C.3       1    UNL1     0.0896
     12 C12         5.4040   -7.3520   11.9660 C.3       1    UNL1     0.0896
     13 C13         5.8870   -3.4830    6.9100 C.ar      1    UNL1     0.1205
     14 C14         3.2610   -8.2730   11.5030 C.ar      1    UNL1     0.1205
     15 C15         6.5890   -4.6420    7.2390 C.ar      1    UNL1    -0.0191
     16 C16         2.3240   -7.7080   10.6370 C.ar      1    UNL1    -0.0191
     17 C17         5.2850   -3.3640    5.6570 C.ar      1    UNL1    -0.0191
     18 C18         2.8390   -8.8850   12.6840 C.ar      1    UNL1    -0.0191
     19 C19         6.0880   -5.5640    5.0630 C.ar      1    UNL1     0.0610
     20 C20         0.5440   -8.3680   12.1320 C.ar      1    UNL1     0.0610
     21 C21         6.6890   -5.6830    6.3160 C.ar      1    UNL1    -0.0436
     22 C22         0.9660   -7.7560   10.9520 C.ar      1    UNL1    -0.0436
     23 C23         5.3860   -4.4040    4.7340 C.ar      1    UNL1    -0.0436
     24 C24         1.4810   -8.9320   12.9980 C.ar      1    UNL1    -0.0436
     25 C25         6.1920   -6.6490    4.1000 C.2       1    UNL1     0.2662
     26 C26        -0.8720   -8.4180   12.4590 C.2       1    UNL1     0.2662
     27 H1          4.8050   -6.9730    2.5980 H         1    UNL1     0.2883
     28 H2          6.1360   -6.0140    2.1310 H         1    UNL1     0.2883
     29 H3         -1.1230   -8.9810   14.4350 H         1    UNL1     0.2883
     30 H4         -1.8270   -7.4800   14.0380 H         1    UNL1     0.2883
     31 H5          6.8700   -8.5090    3.7890 H         1    UNL1     0.3009
     32 H6          7.1790   -7.8750    5.3410 H         1    UNL1     0.3009
     33 H7         -2.7220   -8.6360   11.7210 H         1    UNL1     0.3009
     34 H8         -1.4680   -8.7050   10.5680 H         1    UNL1     0.3009
     35 H9          4.8240   -3.3880   10.3880 H         1    UNL1     0.0266
     36 H10         4.8380   -5.0090    9.7010 H         1    UNL1     0.0266
     37 H11         5.6720   -4.0950   12.3620 H         1    UNL1     0.0266
     38 H12         6.7080   -5.2910   11.5880 H         1    UNL1     0.0266
     39 H13         6.7480   -4.6240    8.6460 H         1    UNL1     0.0298
     40 H14         7.5000   -4.0530   10.1350 H         1    UNL1     0.0298
     41 H15         3.9250   -5.9690   11.3180 H         1    UNL1     0.0298
     42 H16         4.4070   -5.8010   13.0060 H         1    UNL1     0.0298
     43 H17         6.2810   -1.8650    9.7120 H         1    UNL1     0.0696
     44 H18         7.6330   -2.2230    8.6720 H         1    UNL1     0.0696
     45 H19         6.3730   -7.2710   11.5210 H         1    UNL1     0.0696
     46 H20         5.5070   -7.7340   12.9600 H         1    UNL1     0.0696
     47 H21         7.0340   -4.7300    8.1660 H         1    UNL1     0.0654
     48 H22         2.6360   -7.2560    9.7640 H         1    UNL1     0.0654
     49 H23         4.7660   -2.5060    5.4130 H         1    UNL1     0.0654
     50 H24         3.5310   -9.3020   13.3250 H         1    UNL1     0.0654
     51 H25         7.2090   -6.5410    6.5600 H         1    UNL1     0.0627
     52 H26         0.2730   -7.3380   10.3110 H         1    UNL1     0.0627
     53 H27         4.9410   -4.3160    3.8070 H         1    UNL1     0.0627
     54 H28         1.1690   -9.3850   13.8710 H         1    UNL1     0.0627
@<TRIPOS>UNITY_ATOM_ATTR
5 1
charge 1
6 1
charge 1
@<TRIPOS>BOND
     1     1    11    1
     2     1    13    1
     3     2    12    1
     4     2    14    1
     5     3    25    1
     6     4    26    1
     7     5    25    2
     8     6    26    2
     9     7     8    1
    10     7     9    1
    11     8    10    1
    12     9    11    1
    13    10    12    1
    14    13    15   ar
    15    13    17   ar
    16    14    16   ar
    17    14    18   ar
    18    15    21   ar
    19    16    22   ar
    20    17    23   ar
    21    18    24   ar
    22    19    21   ar
    23    19    23   ar
    24    19    25    1
    25    20    22   ar
    26    20    24   ar
    27    20    26    1
    28     3    27    1
    29     3    28    1
    30     4    29    1
    31     4    30    1
    32     5    31    1
    33     5    32    1
    34     6    33    1
    35     6    34    1
    36     7    35    1
    37     7    36    1
    38     8    37    1
    39     8    38    1
    40     9    39    1
    41     9    40    1
    42    10    41    1
    43    10    42    1
    44    11    43    1
    45    11    44    1
    46    12    45    1
    47    12    46    1
    48    15    47    1
    49    16    48    1
    50    17    49    1
    51    18    50    1
    52    21    51    1
    53    22    52    1
    54    23    53    1
    55    24    54    1
