#REMARK Cluster  11 of Poses:  1 Score: -7.08 kcal/mol
@<TRIPOS>MOLECULE
65130
 54 55 0 0 0
SMALL
GASTEIGER

@<TRIPOS>ATOM
      1 O1          2.1430    0.2980   14.7720 O.3       1    UNL1    -0.4920
      2 O2          6.0000   -3.5550    8.8170 O.3       1    UNL1    -0.4920
      3 N3          3.1970    5.1220   18.9230 N.pl3     1    UNL1    -0.2497
      4 N4          5.7970   -6.2720    2.9700 N.pl3     1    UNL1    -0.2497
      5 N5          2.0310    6.1910   17.2030 N.2       1    UNL1    -0.2884
      6 N6          6.7080   -7.9790    4.2800 N.2       1    UNL1    -0.2884
      7 C7          3.8660   -1.7720   12.2610 C.3       1    UNL1    -0.0499
      8 C8          3.7240   -3.2120   11.7660 C.3       1    UNL1    -0.0499
      9 C9          3.0500   -1.5380   13.5300 C.3       1    UNL1    -0.0186
     10 C10         4.9510   -3.6480   10.9680 C.3       1    UNL1    -0.0186
     11 C11         3.3220   -0.1640   14.1270 C.3       1    UNL1     0.0896
     12 C12         4.7410   -3.4680    9.4710 C.3       1    UNL1     0.0896
     13 C13         2.2440    1.4640   15.4850 C.ar      1    UNL1     0.1205
     14 C14         6.0590   -4.3330    7.6910 C.ar      1    UNL1     0.1205
     15 C15         3.2970    2.3450   15.2350 C.ar      1    UNL1    -0.0191
     16 C16         6.7270   -5.5570    7.7230 C.ar      1    UNL1    -0.0191
     17 C17         1.2940    1.7720   16.4580 C.ar      1    UNL1    -0.0191
     18 C18         5.4480   -3.9030    6.5130 C.ar      1    UNL1    -0.0191
     19 C19         2.4490    3.8400   16.9330 C.ar      1    UNL1     0.0610
     20 C20         6.1750   -5.9200    5.3990 C.ar      1    UNL1     0.0610
     21 C21         3.3990    3.5330   15.9590 C.ar      1    UNL1    -0.0436
     22 C22         6.7860   -6.3510    6.5770 C.ar      1    UNL1    -0.0436
     23 C23         1.3960    2.9600   17.1820 C.ar      1    UNL1    -0.0436
     24 C24         5.5060   -4.6970    5.3670 C.ar      1    UNL1    -0.0436
     25 C25         2.5540    5.0790   17.6870 C.2       1    UNL1     0.2662
     26 C26         6.2350   -6.7480    4.2050 C.2       1    UNL1     0.2662
     27 H1          2.7100    5.4330   19.7210 H         1    UNL1     0.2883
     28 H2          4.1380    4.8430   18.9990 H         1    UNL1     0.2883
     29 H3          6.0070   -5.3500    2.6960 H         1    UNL1     0.2883
     30 H4          5.2780   -6.8570    2.3730 H         1    UNL1     0.2883
     31 H5          2.1020    7.0310   17.7120 H         1    UNL1     0.3009
     32 H6          1.5710    6.1800   16.3330 H         1    UNL1     0.3009
     33 H7          6.7500   -8.5410    3.4730 H         1    UNL1     0.3009
     34 H8          7.0200   -8.3350    5.1440 H         1    UNL1     0.3009
     35 H9          3.5210   -1.1060   11.4980 H         1    UNL1     0.0266
     36 H10         4.8960   -1.5910   12.4840 H         1    UNL1     0.0266
     37 H11         2.8590   -3.2820   11.1410 H         1    UNL1     0.0266
     38 H12         3.6300   -3.8530   12.6170 H         1    UNL1     0.0266
     39 H13         3.3070   -2.2860   14.2510 H         1    UNL1     0.0298
     40 H14         2.0120   -1.5920   13.2760 H         1    UNL1     0.0298
     41 H15         5.1460   -4.6810   11.1690 H         1    UNL1     0.0298
     42 H16         5.7780   -3.0380   11.2660 H         1    UNL1     0.0298
     43 H17         4.1170   -0.2330   14.8400 H         1    UNL1     0.0696
     44 H18         3.6040    0.5190   13.3530 H         1    UNL1     0.0696
     45 H19         4.0920   -4.2350    9.1040 H         1    UNL1     0.0696
     46 H20         4.2980   -2.5130    9.2800 H         1    UNL1     0.0696
     47 H21         4.0000    2.1180   14.5150 H         1    UNL1     0.0654
     48 H22         7.1790   -5.8760    8.5950 H         1    UNL1     0.0654
     49 H23         0.5150    1.1200   16.6430 H         1    UNL1     0.0654
     50 H24         4.9530   -2.9980    6.4890 H         1    UNL1     0.0654
     51 H25         4.1780    4.1840   15.7750 H         1    UNL1     0.0627
     52 H26         7.2800   -7.2560    6.6010 H         1    UNL1     0.0627
     53 H27         0.6930    3.1870   17.9020 H         1    UNL1     0.0627
     54 H28         5.0550   -4.3780    4.4950 H         1    UNL1     0.0627
@<TRIPOS>UNITY_ATOM_ATTR
5 1
charge 1
6 1
charge 1
@<TRIPOS>BOND
     1     1    11    1
     2     1    13    1
     3     2    12    1
     4     2    14    1
     5     3    25    1
     6     4    26    1
     7     5    25    2
     8     6    26    2
     9     7     8    1
    10     7     9    1
    11     8    10    1
    12     9    11    1
    13    10    12    1
    14    13    15   ar
    15    13    17   ar
    16    14    16   ar
    17    14    18   ar
    18    15    21   ar
    19    16    22   ar
    20    17    23   ar
    21    18    24   ar
    22    19    21   ar
    23    19    23   ar
    24    19    25    1
    25    20    22   ar
    26    20    24   ar
    27    20    26    1
    28     3    27    1
    29     3    28    1
    30     4    29    1
    31     4    30    1
    32     5    31    1
    33     5    32    1
    34     6    33    1
    35     6    34    1
    36     7    35    1
    37     7    36    1
    38     8    37    1
    39     8    38    1
    40     9    39    1
    41     9    40    1
    42    10    41    1
    43    10    42    1
    44    11    43    1
    45    11    44    1
    46    12    45    1
    47    12    46    1
    48    15    47    1
    49    16    48    1
    50    17    49    1
    51    18    50    1
    52    21    51    1
    53    22    52    1
    54    23    53    1
    55    24    54    1
