#REMARK Cluster   2 of Poses:  1 Score: -8.35 kcal/mol
@<TRIPOS>MOLECULE
65130
 54 55 0 0 0
SMALL
GASTEIGER

@<TRIPOS>ATOM
      1 O1          2.7680   -1.0260   14.2640 O.3       1    UNL1    -0.4920
      2 O2          7.6390   -3.8550    8.5390 O.3       1    UNL1    -0.4920
      3 N3          1.6720    5.3000   14.8940 N.pl3     1    UNL1    -0.2497
      4 N4          3.8270   -5.4350    3.5820 N.pl3     1    UNL1    -0.2497
      5 N5          1.3530    4.5190   17.0740 N.2       1    UNL1    -0.2884
      6 N6          5.8410   -6.4710    3.0080 N.2       1    UNL1    -0.2884
      7 C7          4.5580   -2.6350   11.4410 C.3       1    UNL1    -0.0499
      8 C8          6.0540   -2.7140   11.7470 C.3       1    UNL1    -0.0499
      9 C9          3.7300   -2.5880   12.7240 C.3       1    UNL1    -0.0186
     10 C10         6.8870   -2.6540   10.4690 C.3       1    UNL1    -0.0186
     11 C11         3.0180   -1.2520   12.8830 C.3       1    UNL1     0.0896
     12 C12         6.9100   -3.9960    9.7500 C.3       1    UNL1     0.0896
     13 C13         2.4930    0.2630   14.6400 C.ar      1    UNL1     0.1205
     14 C14         7.0350   -4.3120    7.3960 C.ar      1    UNL1     0.1205
     15 C15         1.2720    0.5680   15.2410 C.ar      1    UNL1    -0.0191
     16 C16         7.5980   -5.3720    6.6850 C.ar      1    UNL1    -0.0191
     17 C17         3.4360    1.2680   14.4250 C.ar      1    UNL1    -0.0191
     18 C18         5.8560   -3.7180    6.9460 C.ar      1    UNL1    -0.0191
     19 C19         1.9350    2.8850   15.4110 C.ar      1    UNL1     0.0610
     20 C20         5.8020   -5.2440    5.0740 C.ar      1    UNL1     0.0610
     21 C21         0.9930    1.8800   15.6260 C.ar      1    UNL1    -0.0436
     22 C22         6.9820   -5.8380    5.5240 C.ar      1    UNL1    -0.0436
     23 C23         3.1570    2.5790   14.8100 C.ar      1    UNL1    -0.0436
     24 C24         5.2390   -4.1840    5.7850 C.ar      1    UNL1    -0.0436
     25 C25         1.6450    4.2520   15.8130 C.2       1    UNL1     0.2662
     26 C26         5.1590   -5.7300    3.8630 C.2       1    UNL1     0.2662
     27 H1          1.5680    6.2290   15.2030 H         1    UNL1     0.2883
     28 H2          1.7940    5.1110   13.9360 H         1    UNL1     0.2883
     29 H3          3.6050   -4.7890    2.8720 H         1    UNL1     0.2883
     30 H4          3.1070   -5.8720    4.0920 H         1    UNL1     0.2883
     31 H5          1.1560    5.4440   17.3480 H         1    UNL1     0.3009
     32 H6          1.3320    3.7940   17.7390 H         1    UNL1     0.3009
     33 H7          5.4080   -6.8010    2.1880 H         1    UNL1     0.3009
     34 H8          6.7830   -6.6930    3.1910 H         1    UNL1     0.3009
     35 H9          4.2720   -3.4970   10.8740 H         1    UNL1     0.0266
     36 H10         4.3730   -1.7390   10.8870 H         1    UNL1     0.0266
     37 H11         6.2580   -3.6340   12.2540 H         1    UNL1     0.0266
     38 H12         6.3170   -1.8780   12.3610 H         1    UNL1     0.0266
     39 H13         4.3790   -2.7380   13.5610 H         1    UNL1     0.0298
     40 H14         2.9880   -3.3570   12.6720 H         1    UNL1     0.0298
     41 H15         7.8890   -2.3780   10.7200 H         1    UNL1     0.0298
     42 H16         6.4430   -1.9330    9.8150 H         1    UNL1     0.0298
     43 H17         3.6350   -0.4670   12.4970 H         1    UNL1     0.0696
     44 H18         2.0940   -1.2660   12.3450 H         1    UNL1     0.0696
     45 H19         7.3820   -4.7280   10.3710 H         1    UNL1     0.0696
     46 H20         5.9100   -4.3110    9.5370 H         1    UNL1     0.0696
     47 H21         0.5750   -0.1760   15.4000 H         1    UNL1     0.0654
     48 H22         8.4700   -5.8110    7.0180 H         1    UNL1     0.0654
     49 H23         4.3390    1.0420   13.9810 H         1    UNL1     0.0654
     50 H24         5.4390   -2.9340    7.4720 H         1    UNL1     0.0654
     51 H25         0.0900    2.1060   16.0710 H         1    UNL1     0.0627
     52 H26         7.3980   -6.6220    4.9980 H         1    UNL1     0.0627
     53 H27         3.8540    3.3230   14.6510 H         1    UNL1     0.0627
     54 H28         4.3670   -3.7450    5.4520 H         1    UNL1     0.0627
@<TRIPOS>UNITY_ATOM_ATTR
5 1
charge 1
6 1
charge 1
@<TRIPOS>BOND
     1     1    11    1
     2     1    13    1
     3     2    12    1
     4     2    14    1
     5     3    25    1
     6     4    26    1
     7     5    25    2
     8     6    26    2
     9     7     8    1
    10     7     9    1
    11     8    10    1
    12     9    11    1
    13    10    12    1
    14    13    15   ar
    15    13    17   ar
    16    14    16   ar
    17    14    18   ar
    18    15    21   ar
    19    16    22   ar
    20    17    23   ar
    21    18    24   ar
    22    19    21   ar
    23    19    23   ar
    24    19    25    1
    25    20    22   ar
    26    20    24   ar
    27    20    26    1
    28     3    27    1
    29     3    28    1
    30     4    29    1
    31     4    30    1
    32     5    31    1
    33     5    32    1
    34     6    33    1
    35     6    34    1
    36     7    35    1
    37     7    36    1
    38     8    37    1
    39     8    38    1
    40     9    39    1
    41     9    40    1
    42    10    41    1
    43    10    42    1
    44    11    43    1
    45    11    44    1
    46    12    45    1
    47    12    46    1
    48    15    47    1
    49    16    48    1
    50    17    49    1
    51    18    50    1
    52    21    51    1
    53    22    52    1
    54    23    53    1
    55    24    54    1
