#REMARK Cluster   7 of Poses:  1 Score: -7.76 kcal/mol
@<TRIPOS>MOLECULE
65130
 54 55 0 0 0
SMALL
GASTEIGER

@<TRIPOS>ATOM
      1 O1          4.5980    0.5620   14.0170 O.3       1    UNL1    -0.4920
      2 O2          6.6400   -2.9380    8.3480 O.3       1    UNL1    -0.4920
      3 N3          6.9400    3.1720    8.6020 N.pl3     1    UNL1    -0.2497
      4 N4          5.3240   -6.3290    3.0220 N.pl3     1    UNL1    -0.2497
      5 N5          7.8070    4.5840   10.2510 N.2       1    UNL1    -0.2884
      6 N6          6.7020   -7.7930    4.2140 N.2       1    UNL1    -0.2884
      7 C7          3.4640   -2.0850   11.9520 C.3       1    UNL1    -0.0499
      8 C8          4.4460   -3.0800   11.3310 C.3       1    UNL1    -0.0499
      9 C9          3.9300   -1.6340   13.3350 C.3       1    UNL1    -0.0186
     10 C10         5.3270   -2.4090   10.2800 C.3       1    UNL1    -0.0186
     11 C11         3.4690   -0.2180   13.6480 C.3       1    UNL1     0.0896
     12 C12         6.2990   -3.3960    9.6490 C.3       1    UNL1     0.0896
     13 C13         5.2010    1.2860   13.0220 C.ar      1    UNL1     0.1205
     14 C14         6.5090   -3.8360    7.3220 C.ar      1    UNL1     0.1205
     15 C15         5.3610    2.6650   13.1620 C.ar      1    UNL1    -0.0191
     16 C16         7.0770   -5.1050    7.4290 C.ar      1    UNL1    -0.0191
     17 C17         5.6570    0.6450   11.8700 C.ar      1    UNL1    -0.0191
     18 C18         5.8040   -3.4820    6.1710 C.ar      1    UNL1    -0.0191
     19 C19         6.4320    2.7600   10.9980 C.ar      1    UNL1     0.0610
     20 C20         6.2380   -5.6660    5.2340 C.ar      1    UNL1     0.0610
     21 C21         5.9770    3.4020   12.1500 C.ar      1    UNL1    -0.0436
     22 C22         6.9420   -6.0200    6.3850 C.ar      1    UNL1    -0.0436
     23 C23         6.2720    1.3810   10.8580 C.ar      1    UNL1    -0.0436
     24 C24         5.6690   -4.3970    5.1270 C.ar      1    UNL1    -0.0436
     25 C25         7.0750    3.5280    9.9430 C.2       1    UNL1     0.2662
     26 C26         6.0960   -6.6210    4.1450 C.2       1    UNL1     0.2662
     27 H1          6.9870    3.8630    7.9030 H         1    UNL1     0.2883
     28 H2          6.7980    2.2300    8.3550 H         1    UNL1     0.2883
     29 H3          5.6110   -6.6430    2.1330 H         1    UNL1     0.2883
     30 H4          4.4930   -5.8100    3.1160 H         1    UNL1     0.2883
     31 H5          8.2430    5.1050    9.5380 H         1    UNL1     0.3009
     32 H6          7.9160    4.8500   11.1920 H         1    UNL1     0.3009
     33 H7          6.6070   -8.4400    3.4790 H         1    UNL1     0.3009
     34 H8          7.2490   -8.0180    5.0010 H         1    UNL1     0.3009
     35 H9          2.5050   -2.5510   12.0420 H         1    UNL1     0.0266
     36 H10         3.4090   -1.2250   11.3180 H         1    UNL1     0.0266
     37 H11         3.8940   -3.8720   10.8690 H         1    UNL1     0.0266
     38 H12         5.0760   -3.4610   12.1070 H         1    UNL1     0.0266
     39 H13         4.9990   -1.6660   13.3680 H         1    UNL1     0.0298
     40 H14         3.5040   -2.2930   14.0620 H         1    UNL1     0.0298
     41 H15         5.8840   -1.6230   10.7450 H         1    UNL1     0.0298
     42 H16         4.6940   -2.0250    9.5090 H         1    UNL1     0.0298
     43 H17         3.0040    0.2090   12.7840 H         1    UNL1     0.0696
     44 H18         2.7620   -0.2350   14.4520 H         1    UNL1     0.0696
     45 H19         7.1830   -3.4640   10.2490 H         1    UNL1     0.0696
     46 H20         5.8450   -4.3630    9.5860 H         1    UNL1     0.0696
     47 H21         5.0240    3.1400   14.0140 H         1    UNL1     0.0654
     48 H22         7.5980   -5.3670    8.2800 H         1    UNL1     0.0654
     49 H23         5.5380   -0.3750   11.7670 H         1    UNL1     0.0654
     50 H24         5.3830   -2.5430    6.0910 H         1    UNL1     0.0654
     51 H25         6.0950    4.4220   12.2530 H         1    UNL1     0.0627
     52 H26         7.3620   -6.9590    6.4640 H         1    UNL1     0.0627
     53 H27         6.6090    0.9060   10.0060 H         1    UNL1     0.0627
     54 H28         5.1480   -4.1350    4.2750 H         1    UNL1     0.0627
@<TRIPOS>UNITY_ATOM_ATTR
5 1
charge 1
6 1
charge 1
@<TRIPOS>BOND
     1     1    11    1
     2     1    13    1
     3     2    12    1
     4     2    14    1
     5     3    25    1
     6     4    26    1
     7     5    25    2
     8     6    26    2
     9     7     8    1
    10     7     9    1
    11     8    10    1
    12     9    11    1
    13    10    12    1
    14    13    15   ar
    15    13    17   ar
    16    14    16   ar
    17    14    18   ar
    18    15    21   ar
    19    16    22   ar
    20    17    23   ar
    21    18    24   ar
    22    19    21   ar
    23    19    23   ar
    24    19    25    1
    25    20    22   ar
    26    20    24   ar
    27    20    26    1
    28     3    27    1
    29     3    28    1
    30     4    29    1
    31     4    30    1
    32     5    31    1
    33     5    32    1
    34     6    33    1
    35     6    34    1
    36     7    35    1
    37     7    36    1
    38     8    37    1
    39     8    38    1
    40     9    39    1
    41     9    40    1
    42    10    41    1
    43    10    42    1
    44    11    43    1
    45    11    44    1
    46    12    45    1
    47    12    46    1
    48    15    47    1
    49    16    48    1
    50    17    49    1
    51    18    50    1
    52    21    51    1
    53    22    52    1
    54    23    53    1
    55    24    54    1
