#REMARK Cluster   4 of Poses:  2 Score: -8.01 kcal/mol
@<TRIPOS>MOLECULE
65130
 54 55 0 0 0
SMALL
GASTEIGER

@<TRIPOS>ATOM
      1 O1          7.0430   -3.6740    8.4390 O.3       1    UNL1    -0.4920
      2 O2          3.3400   -6.2980   14.5350 O.3       1    UNL1    -0.4920
      3 N3          3.7170   -5.5880    3.2550 N.pl3     1    UNL1    -0.2497
      4 N4         -1.7960   -8.4150   11.2580 N.pl3     1    UNL1    -0.2497
      5 N5          5.7980   -6.5950    2.9090 N.2       1    UNL1    -0.2884
      6 N6         -1.0900  -10.3440   12.3730 N.2       1    UNL1    -0.2884
      7 C7          4.5090   -3.3120   11.1770 C.3       1    UNL1    -0.0499
      8 C8          5.2170   -4.3930   11.9950 C.3       1    UNL1    -0.0499
      9 C9          5.1330   -3.1650    9.7920 C.3       1    UNL1    -0.0186
     10 C10         4.5410   -4.5990   13.3490 C.3       1    UNL1    -0.0186
     11 C11         6.3720   -4.0360    9.6390 C.3       1    UNL1     0.0896
     12 C12         4.4930   -6.0700   13.7360 C.3       1    UNL1     0.0896
     13 C13         6.5520   -4.2010    7.2730 C.ar      1    UNL1     0.1205
     14 C14         2.3030   -6.9740   13.9460 C.ar      1    UNL1     0.1205
     15 C15         6.8470   -5.5190    6.9250 C.ar      1    UNL1    -0.0191
     16 C16         1.2500   -7.4510   14.7260 C.ar      1    UNL1    -0.0191
     17 C17         5.7560   -3.4190    6.4350 C.ar      1    UNL1    -0.0191
     18 C18         2.3000   -7.1820   12.5660 C.ar      1    UNL1    -0.0191
     19 C19         5.5500   -5.2740    4.9010 C.ar      1    UNL1     0.0610
     20 C20         0.1900   -8.3450   12.7470 C.ar      1    UNL1     0.0610
     21 C21         6.3460   -6.0560    5.7390 C.ar      1    UNL1    -0.0436
     22 C22         0.1930   -8.1370   14.1260 C.ar      1    UNL1    -0.0436
     23 C23         5.2550   -3.9560    5.2500 C.ar      1    UNL1    -0.0436
     24 C24         1.2440   -7.8680   11.9670 C.ar      1    UNL1    -0.0436
     25 C25         5.0270   -5.8340    3.6650 C.2       1    UNL1     0.2662
     26 C26        -0.9110   -9.0590   12.1220 C.2       1    UNL1     0.2662
     27 H1          2.9640   -5.8390    3.8370 H         1    UNL1     0.2883
     28 H2          3.5460   -5.1640    2.3830 H         1    UNL1     0.2883
     29 H3         -1.4540   -7.9440   10.4640 H         1    UNL1     0.2883
     30 H4         -2.7630   -8.4320   11.4420 H         1    UNL1     0.2883
     31 H5          5.4450   -6.9750    2.0720 H         1    UNL1     0.3009
     32 H6          6.7240   -6.7830    3.1830 H         1    UNL1     0.3009
     33 H7         -1.8350  -10.8300   11.9510 H         1    UNL1     0.3009
     34 H8         -0.4770  -10.8160   12.9830 H         1    UNL1     0.3009
     35 H9          4.5830   -2.3790   11.6950 H         1    UNL1     0.0266
     36 H10         3.4840   -3.5980   11.0570 H         1    UNL1     0.0266
     37 H11         6.2340   -4.0990   12.1550 H         1    UNL1     0.0266
     38 H12         5.1700   -5.3130   11.4510 H         1    UNL1     0.0266
     39 H13         5.4080   -2.1410    9.6420 H         1    UNL1     0.0298
     40 H14         4.4130   -3.4780    9.0650 H         1    UNL1     0.0298
     41 H15         3.5410   -4.2210   13.2980 H         1    UNL1     0.0298
     42 H16         5.1100   -4.0770   14.0900 H         1    UNL1     0.0298
     43 H17         7.0230   -3.8850   10.4740 H         1    UNL1     0.0696
     44 H18         6.0880   -5.0670    9.5990 H         1    UNL1     0.0696
     45 H19         4.4430   -6.6720   12.8520 H         1    UNL1     0.0696
     46 H20         5.3730   -6.3300   14.2860 H         1    UNL1     0.0696
     47 H21         7.4360   -6.0970    7.5450 H         1    UNL1     0.0654
     48 H22         1.2520   -7.2970   15.7460 H         1    UNL1     0.0654
     49 H23         5.5380   -2.4440    6.6930 H         1    UNL1     0.0654
     50 H24         3.0790   -6.8290   11.9890 H         1    UNL1     0.0654
     51 H25         6.5640   -7.0310    5.4810 H         1    UNL1     0.0627
     52 H26        -0.5860   -8.4900   14.7030 H         1    UNL1     0.0627
     53 H27         4.6660   -3.3780    4.6300 H         1    UNL1     0.0627
     54 H28         1.2410   -8.0220   10.9470 H         1    UNL1     0.0627
@<TRIPOS>UNITY_ATOM_ATTR
5 1
charge 1
6 1
charge 1
@<TRIPOS>BOND
     1     1    11    1
     2     1    13    1
     3     2    12    1
     4     2    14    1
     5     3    25    1
     6     4    26    1
     7     5    25    2
     8     6    26    2
     9     7     8    1
    10     7     9    1
    11     8    10    1
    12     9    11    1
    13    10    12    1
    14    13    15   ar
    15    13    17   ar
    16    14    16   ar
    17    14    18   ar
    18    15    21   ar
    19    16    22   ar
    20    17    23   ar
    21    18    24   ar
    22    19    21   ar
    23    19    23   ar
    24    19    25    1
    25    20    22   ar
    26    20    24   ar
    27    20    26    1
    28     3    27    1
    29     3    28    1
    30     4    29    1
    31     4    30    1
    32     5    31    1
    33     5    32    1
    34     6    33    1
    35     6    34    1
    36     7    35    1
    37     7    36    1
    38     8    37    1
    39     8    38    1
    40     9    39    1
    41     9    40    1
    42    10    41    1
    43    10    42    1
    44    11    43    1
    45    11    44    1
    46    12    45    1
    47    12    46    1
    48    15    47    1
    49    16    48    1
    50    17    49    1
    51    18    50    1
    52    21    51    1
    53    22    52    1
    54    23    53    1
    55    24    54    1
