#REMARK Cluster   6 of Poses:  2 Score: -7.77 kcal/mol
@<TRIPOS>MOLECULE
65130
 54 55 0 0 0
SMALL
GASTEIGER

@<TRIPOS>ATOM
      1 O1          8.0890    2.6930    9.4700 O.3       1    UNL1    -0.4920
      2 O2          6.1210   -2.0630    7.4600 O.3       1    UNL1    -0.4920
      3 N3         12.8520    7.0130    8.9740 N.pl3     1    UNL1    -0.2497
      4 N4          6.9820   -7.7380    4.5170 N.pl3     1    UNL1    -0.2497
      5 N5         14.0060    5.0680    9.5630 N.2       1    UNL1    -0.2884
      6 N6          5.4140   -6.6950    3.1340 N.2       1    UNL1    -0.2884
      7 C7          6.0440    1.0380    9.5220 C.3       1    UNL1    -0.0499
      8 C8          6.1150   -0.2460   10.3490 C.3       1    UNL1    -0.0499
      9 C9          5.9300    2.2700   10.4170 C.3       1    UNL1    -0.0186
     10 C10         5.4030   -1.4000    9.6460 C.3       1    UNL1    -0.0186
     11 C11         6.9570    3.3310   10.0460 C.3       1    UNL1     0.0896
     12 C12         6.3750   -2.2550    8.8450 C.3       1    UNL1     0.0896
     13 C13         9.2520    3.4160    9.4290 C.ar      1    UNL1     0.1205
     14 C14         6.1330   -3.1820    6.6680 C.ar      1    UNL1     0.1205
     15 C15        10.4040    2.8530    8.8790 C.ar      1    UNL1    -0.0191
     16 C16         5.4420   -3.1860    5.4560 C.ar      1    UNL1    -0.0191
     17 C17         9.2840    4.7150    9.9360 C.ar      1    UNL1    -0.0191
     18 C18         6.8370   -4.3160    7.0730 C.ar      1    UNL1    -0.0191
     19 C19        11.6200    4.8890    9.3430 C.ar      1    UNL1     0.0610
     20 C20         6.1600   -5.4580    5.0540 C.ar      1    UNL1     0.0610
     21 C21        11.5880    3.5900    8.8360 C.ar      1    UNL1    -0.0436
     22 C22         5.4560   -4.3240    4.6500 C.ar      1    UNL1    -0.0436
     23 C23        10.4680    5.4520    9.8930 C.ar      1    UNL1    -0.0436
     24 C24         6.8500   -5.4540    6.2660 C.ar      1    UNL1    -0.0436
     25 C25        12.8540    5.6570    9.2980 C.2       1    UNL1     0.2662
     26 C26         6.1740   -6.6440    4.2130 C.2       1    UNL1     0.2662
     27 H1         13.6470    7.4210    8.5620 H         1    UNL1     0.2883
     28 H2         12.0560    7.5620    9.1590 H         1    UNL1     0.2883
     29 H3          7.0740   -8.0390    5.4500 H         1    UNL1     0.2883
     30 H4          7.4610   -8.2110    3.7980 H         1    UNL1     0.2883
     31 H5         14.8430    5.5860    9.5330 H         1    UNL1     0.3009
     32 H6         14.0290    4.1100    9.7910 H         1    UNL1     0.3009
     33 H7          5.4220   -7.4970    2.5630 H         1    UNL1     0.3009
     34 H8          4.8380   -5.9310    2.9010 H         1    UNL1     0.3009
     35 H9          5.1880    0.9930    8.8810 H         1    UNL1     0.0266
     36 H10         6.9430    1.1200    8.9480 H         1    UNL1     0.0266
     37 H11         5.6500   -0.0760   11.2970 H         1    UNL1     0.0266
     38 H12         7.1440   -0.5110   10.4730 H         1    UNL1     0.0266
     39 H13         6.0880    1.9760   11.4340 H         1    UNL1     0.0298
     40 H14         4.9550    2.6890   10.2870 H         1    UNL1     0.0298
     41 H15         4.6650   -1.0000    8.9830 H         1    UNL1     0.0298
     42 H16         4.9510   -2.0190   10.3930 H         1    UNL1     0.0298
     43 H17         6.5300    4.0120    9.3390 H         1    UNL1     0.0696
     44 H18         7.2520    3.8730   10.9200 H         1    UNL1     0.0696
     45 H19         7.3790   -1.9650    9.0700 H         1    UNL1     0.0696
     46 H20         6.2440   -3.2870    9.0980 H         1    UNL1     0.0696
     47 H21        10.3810    1.8920    8.5040 H         1    UNL1     0.0654
     48 H22         4.9210   -2.3470    5.1560 H         1    UNL1     0.0654
     49 H23         8.4320    5.1320   10.3430 H         1    UNL1     0.0654
     50 H24         7.3480   -4.3140    7.9700 H         1    UNL1     0.0654
     51 H25        12.4400    3.1740    8.4290 H         1    UNL1     0.0627
     52 H26         4.9450   -4.3270    3.7530 H         1    UNL1     0.0627
     53 H27        10.4920    6.4130   10.2680 H         1    UNL1     0.0627
     54 H28         7.3710   -6.2930    6.5660 H         1    UNL1     0.0627
@<TRIPOS>UNITY_ATOM_ATTR
5 1
charge 1
6 1
charge 1
@<TRIPOS>BOND
     1     1    11    1
     2     1    13    1
     3     2    12    1
     4     2    14    1
     5     3    25    1
     6     4    26    1
     7     5    25    2
     8     6    26    2
     9     7     8    1
    10     7     9    1
    11     8    10    1
    12     9    11    1
    13    10    12    1
    14    13    15   ar
    15    13    17   ar
    16    14    16   ar
    17    14    18   ar
    18    15    21   ar
    19    16    22   ar
    20    17    23   ar
    21    18    24   ar
    22    19    21   ar
    23    19    23   ar
    24    19    25    1
    25    20    22   ar
    26    20    24   ar
    27    20    26    1
    28     3    27    1
    29     3    28    1
    30     4    29    1
    31     4    30    1
    32     5    31    1
    33     5    32    1
    34     6    33    1
    35     6    34    1
    36     7    35    1
    37     7    36    1
    38     8    37    1
    39     8    38    1
    40     9    39    1
    41     9    40    1
    42    10    41    1
    43    10    42    1
    44    11    43    1
    45    11    44    1
    46    12    45    1
    47    12    46    1
    48    15    47    1
    49    16    48    1
    50    17    49    1
    51    18    50    1
    52    21    51    1
    53    22    52    1
    54    23    53    1
    55    24    54    1
