#REMARK Cluster   6 of Poses:  1 Score: -7.74 kcal/mol
@<TRIPOS>MOLECULE
9831652
 85 89 0 0 0
SMALL
GASTEIGER

@<TRIPOS>ATOM
      1 CL1         3.6140   -2.2790   10.2790 Cl        1    UNL1    -0.0811
      2 CL2         7.2090    0.5890   13.1700 Cl        1    UNL1    -0.0831
      3 S3          5.7320   -2.4340    7.8650 S.O2      1    UNL1     0.0629
      4 O4          4.3080   -2.7120    7.8440 O.2       1    UNL1    -0.1528
      5 O5          6.3500   -1.6790    6.7910 O.2       1    UNL1    -0.1528
      6 O6          4.4890   -6.0000    9.7130 O.2       1    UNL1    -0.2740
      7 O7          4.3160   -2.0800   13.2630 O.3       1    UNL1    -0.4851
      8 O8          5.2430  -10.3750   12.7620 O.2       1    UNL1    -0.2702
      9 N9          6.5890   -3.8830    8.1030 N.3       1    UNL1    -0.1647
     10 N10         6.7500   -5.6160   10.1130 N.am      1    UNL1    -0.3139
     11 N11         5.3990   -8.4930   11.4140 N.am      1    UNL1    -0.3113
     12 N12         2.4130   -1.4290   15.1460 N.ar      1    UNL1    -0.2482
     13 N13        -1.5730   -8.4340   13.7790 N.pl3     1    UNL1    -0.2497
     14 N14        -1.7080   -8.8410   11.4810 N.2       1    UNL1    -0.2884
     15 C15         5.8500   -5.1660    7.9460 C.3       1    UNL1     0.1078
     16 C16         6.7820   -6.0880    7.1680 C.3       1    UNL1    -0.0260
     17 C17         8.1660   -5.5140    7.4220 C.3       1    UNL1    -0.0366
     18 C18         7.9090   -4.0160    7.4270 C.3       1    UNL1     0.0214
     19 C19         5.6040   -5.6460    9.3370 C.2       1    UNL1     0.2319
     20 C20         6.0880   -1.5980    9.3810 C.ar      1    UNL1     0.1242
     21 C21         6.7740   -6.0090   11.5040 C.3       1    UNL1     0.0131
     22 C22         5.1700   -1.5290   10.4290 C.ar      1    UNL1     0.0750
     23 C23         7.3390   -0.9950    9.5090 C.ar      1    UNL1    -0.0325
     24 C24         7.5400   -7.3100   11.7320 C.3       1    UNL1    -0.0217
     25 C25         5.5030   -0.8560   11.6050 C.ar      1    UNL1     0.0281
     26 C26         7.6720   -0.3220   10.6850 C.ar      1    UNL1    -0.0411
     27 C27         6.7540   -0.2530   11.7330 C.ar      1    UNL1     0.0489
     28 C28         6.8200   -8.5500   11.2040 C.3       1    UNL1     0.0133
     29 C29         4.5210   -0.7780   12.7350 C.3       1    UNL1     0.1175
     30 C30         4.5700   -2.2540   14.6000 C.ar      1    UNL1     0.1468
     31 C31         4.7170   -9.4250   12.1870 C.2       1    UNL1     0.2441
     32 C32         3.6020   -1.9210   15.5430 C.ar      1    UNL1     0.1130
     33 C33         3.9080   -2.1170   16.9060 C.ar      1    UNL1     0.0069
     34 C34         5.8140   -2.7670   14.9760 C.ar      1    UNL1    -0.0178
     35 C35         3.2450   -9.2430   12.2840 C.ar      1    UNL1     0.0367
     36 C36         2.9340   -1.7830   17.8560 C.ar      1    UNL1    -0.0395
     37 C37         5.1590   -2.6340   17.2850 C.ar      1    UNL1    -0.0521
     38 C38         6.1090   -2.9570   16.3200 C.ar      1    UNL1    -0.0576
     39 C39         1.5000   -1.1180   16.0950 C.ar      1    UNL1     0.0393
     40 C40         1.7080   -1.2750   17.4500 C.ar      1    UNL1    -0.0371
     41 C41         3.1610   -1.9540   19.3250 C.3       1    UNL1    -0.0390
     42 C42         2.6910   -7.9690   12.1670 C.ar      1    UNL1    -0.0488
     43 C43         2.4190  -10.3470   12.4930 C.ar      1    UNL1    -0.0488
     44 C44         0.1970   -0.5750   15.6110 C.3       1    UNL1    -0.0223
     45 C45         1.3100   -7.7980   12.2580 C.ar      1    UNL1    -0.0463
     46 C46         1.0370  -10.1760   12.5850 C.ar      1    UNL1    -0.0463
     47 C47         0.4830   -8.9020   12.4670 C.ar      1    UNL1     0.0608
     48 C48        -0.9570   -8.7240   12.5620 C.2       1    UNL1     0.2662
     49 H1          7.5890   -5.3110    9.6980 H         1    UNL1     0.1487
     50 H2          4.8880   -7.7650   10.9920 H         1    UNL1     0.1490
     51 H3         -2.3750   -7.8630   13.8000 H         1    UNL1     0.2883
     52 H4         -1.2070   -8.8000   14.6160 H         1    UNL1     0.2883
     53 H5         -2.6830   -8.7210   11.5440 H         1    UNL1     0.3009
     54 H6         -1.2920   -9.0490   10.6130 H         1    UNL1     0.3009
     55 H7          4.9180   -5.1020    7.4250 H         1    UNL1     0.0575
     56 H8          6.5490   -6.0710    6.1240 H         1    UNL1     0.0286
     57 H9          6.6990   -7.1110    7.4730 H         1    UNL1     0.0286
     58 H10         8.8460   -5.7860    6.6420 H         1    UNL1     0.0279
     59 H11         8.6140   -5.8710    8.3250 H         1    UNL1     0.0279
     60 H12         8.6710   -3.5010    7.9750 H         1    UNL1     0.0444
     61 H13         7.9160   -3.5920    6.4450 H         1    UNL1     0.0444
     62 H14         5.7670   -6.1400   11.8400 H         1    UNL1     0.0462
     63 H15         7.2750   -5.2380   12.0500 H         1    UNL1     0.0462
     64 H16         8.0190   -1.0460    8.7340 H         1    UNL1     0.0638
     65 H17         7.6930   -7.4320   12.7840 H         1    UNL1     0.0295
     66 H18         8.4590   -7.2300   11.1900 H         1    UNL1     0.0295
     67 H19         8.5980    0.1250   10.7800 H         1    UNL1     0.0633
     68 H20         7.0090   -8.6350   10.1550 H         1    UNL1     0.0462
     69 H21         7.1940   -9.3960   11.7420 H         1    UNL1     0.0462
     70 H22         4.9070   -0.1380   13.5010 H         1    UNL1     0.0749
     71 H23         3.5930   -0.3830   12.3800 H         1    UNL1     0.0749
     72 H24         6.5130   -3.0050   14.2550 H         1    UNL1     0.0655
     73 H25         5.3750   -2.7740   18.2840 H         1    UNL1     0.0624
     74 H26         7.0270   -3.3360   16.6020 H         1    UNL1     0.0619
     75 H27         0.9800   -1.0230   18.1360 H         1    UNL1     0.0638
     76 H28         4.1410   -2.3510   19.4910 H         1    UNL1     0.0278
     77 H29         2.4310   -2.6270   19.7230 H         1    UNL1     0.0278
     78 H30         3.0740   -1.0050   19.8120 H         1    UNL1     0.0278
     79 H31         3.3030   -7.1520   12.0120 H         1    UNL1     0.0625
     80 H32         2.8290  -11.2900   12.5800 H         1    UNL1     0.0625
     81 H33         0.2080   -0.5200   14.5430 H         1    UNL1     0.0292
     82 H34         0.0460    0.4040   16.0170 H         1    UNL1     0.0292
     83 H35        -0.5970   -1.2180   15.9280 H         1    UNL1     0.0292
     84 H36         0.8990   -6.8550   12.1720 H         1    UNL1     0.0626
     85 H37         0.4260  -10.9930   12.7400 H         1    UNL1     0.0626
@<TRIPOS>UNITY_ATOM_ATTR
14 1
charge 1
@<TRIPOS>BOND
     1     1    22    1
     2     2    27    1
     3     3     4    2
     4     3     5    2
     5     3     9    1
     6     3    20    1
     7     6    19    2
     8     7    29    1
     9     7    30    1
    10     8    31    2
    11     9    15    1
    12     9    18    1
    13    10    19   am
    14    10    21    1
    15    11    28    1
    16    11    31   am
    17    12    32   ar
    18    12    39   ar
    19    13    48    1
    20    14    48    2
    21    15    16    1
    22    15    19    1
    23    16    17    1
    24    17    18    1
    25    20    22   ar
    26    20    23   ar
    27    21    24    1
    28    22    25   ar
    29    23    26   ar
    30    24    28    1
    31    25    27   ar
    32    25    29    1
    33    26    27   ar
    34    30    32   ar
    35    30    34   ar
    36    31    35    1
    37    32    33   ar
    38    33    36   ar
    39    33    37   ar
    40    34    38   ar
    41    35    42   ar
    42    35    43   ar
    43    36    40   ar
    44    36    41    1
    45    37    38   ar
    46    39    40   ar
    47    39    44    1
    48    42    45   ar
    49    43    46   ar
    50    45    47   ar
    51    46    47   ar
    52    47    48    1
    53    10    49    1
    54    11    50    1
    55    13    51    1
    56    13    52    1
    57    14    53    1
    58    14    54    1
    59    15    55    1
    60    16    56    1
    61    16    57    1
    62    17    58    1
    63    17    59    1
    64    18    60    1
    65    18    61    1
    66    21    62    1
    67    21    63    1
    68    23    64    1
    69    24    65    1
    70    24    66    1
    71    26    67    1
    72    28    68    1
    73    28    69    1
    74    29    70    1
    75    29    71    1
    76    34    72    1
    77    37    73    1
    78    38    74    1
    79    40    75    1
    80    41    76    1
    81    41    77    1
    82    41    78    1
    83    42    79    1
    84    43    80    1
    85    44    81    1
    86    44    82    1
    87    44    83    1
    88    45    84    1
    89    46    85    1
