#REMARK Cluster   9 of Poses:  1 Score: -7.44 kcal/mol
@<TRIPOS>MOLECULE
9895193
 91 93 0 0 0
SMALL
GASTEIGER

@<TRIPOS>ATOM
      1 S1          6.4020   -0.2510    9.4330 S.O2      1    UNL1     0.0596
      2 O2          5.0230   -0.3090    9.8820 O.2       1    UNL1    -0.1530
      3 O3          6.7940    0.6880    8.4000 O.2       1    UNL1    -0.1530
      4 O4          7.9620   -4.0110    8.3160 O.2       1    UNL1    -0.2738
      5 O5          6.4220   -9.2020   12.5050 O.3       1    UNL1    -0.4505
      6 O6          4.1950   -8.7940   12.1860 O.2       1    UNL1    -0.2263
      7 N7          6.4810   -5.3700    9.4800 N.am      1    UNL1    -0.2972
      8 N8          6.9140   -1.8120    8.9890 N.3       1    UNL1    -0.1777
      9 N9          5.7770   -7.2460   11.4770 N.am      1    UNL1    -0.2644
     10 N10         5.3640   -6.6120    3.4340 N.pl3     1    UNL1    -0.2497
     11 N11         6.9200   -6.9840    5.1380 N.2       1    UNL1    -0.2884
     12 C12         7.4200    0.0770   10.8410 C.ar      1    UNL1     0.1121
     13 C13         6.0140   -2.9650    9.1710 C.3       1    UNL1     0.1089
     14 C14         8.2600    1.1910   10.8490 C.ar      1    UNL1    -0.0179
     15 C15         7.3840   -0.7780   11.9420 C.ar      1    UNL1    -0.0179
     16 C16         7.4630   -6.3690    9.9100 C.3       1    UNL1     0.0307
     17 C17         5.0810   -5.7970    9.6090 C.3       1    UNL1     0.0307
     18 C18         6.9110   -4.1570    8.9460 C.2       1    UNL1     0.2346
     19 C19         8.3230    2.1300    9.6890 C.3       1    UNL1    -0.0196
     20 C20         6.4990   -1.9820   11.9670 C.3       1    UNL1    -0.0196
     21 C21         7.1780   -6.8330   11.3360 C.3       1    UNL1     0.0336
     22 C22         4.7890   -6.2610   11.0330 C.3       1    UNL1     0.0336
     23 C23         9.0290    0.5930   13.0600 C.ar      1    UNL1    -0.0441
     24 C24         4.8890   -2.9470    8.1480 C.3       1    UNL1    -0.0021
     25 C25         9.0640    1.4480   11.9590 C.ar      1    UNL1    -0.0530
     26 C26         8.1890   -0.5210   13.0520 C.ar      1    UNL1    -0.0530
     27 C27         9.8890    0.8680   14.2470 C.3       1    UNL1    -0.0215
     28 C28         7.3890    3.3410    9.8650 C.3       1    UNL1    -0.0586
     29 C29         9.7570    2.6110    9.4020 C.3       1    UNL1    -0.0586
     30 C30         7.2980   -3.2970   11.9850 C.3       1    UNL1    -0.0586
     31 C31         5.5070   -1.9540   13.1440 C.3       1    UNL1    -0.0586
     32 C32         5.3860   -3.2190    6.7480 C.ar      1    UNL1    -0.0446
     33 C33         9.7340    2.3100   14.7660 C.3       1    UNL1    -0.0586
     34 C34        11.3760    0.5670   13.9780 C.3       1    UNL1    -0.0586
     35 C35         5.3690   -8.4450   12.0660 C.2       1    UNL1     0.4029
     36 C36         5.5090   -4.5320    6.2940 C.ar      1    UNL1    -0.0438
     37 C37         5.7210   -2.1560    5.9090 C.ar      1    UNL1    -0.0585
     38 C38         5.9680   -4.7820    5.0010 C.ar      1    UNL1     0.0611
     39 C39         6.1790   -2.4070    4.6160 C.ar      1    UNL1    -0.0607
     40 C40         6.3030   -3.7200    4.1620 C.ar      1    UNL1    -0.0470
     41 C41         6.1680  -10.6020   12.6690 C.3       1    UNL1     0.0913
     42 C42         6.0970   -6.1510    4.5260 C.2       1    UNL1     0.2662
     43 C43         7.4820  -11.3510   12.6140 C.3       1    UNL1    -0.0305
     44 H1          7.7580   -2.0090    9.5270 H         1    UNL1     0.1489
     45 H2          4.3920   -6.7450    3.5140 H         1    UNL1     0.2883
     46 H3          5.8190   -6.8040    2.5820 H         1    UNL1     0.2883
     47 H4          7.0090   -7.9110    4.8180 H         1    UNL1     0.3009
     48 H5          7.4440   -6.6790    5.9130 H         1    UNL1     0.3009
     49 H6          5.5420   -2.9690   10.1310 H         1    UNL1     0.0576
     50 H7          8.4420   -5.9380    9.8710 H         1    UNL1     0.0480
     51 H8          7.4000   -7.2140    9.2560 H         1    UNL1     0.0480
     52 H9          4.8970   -6.6040    8.9310 H         1    UNL1     0.0480
     53 H10         4.4450   -4.9680    9.3790 H         1    UNL1     0.0480
     54 H11         7.9840    1.5670    8.8460 H         1    UNL1     0.0344
     55 H12         5.9380   -1.9440   11.0570 H         1    UNL1     0.0344
     56 H13         7.8130   -7.6620   11.5690 H         1    UNL1     0.0481
     57 H14         7.3660   -6.0210   12.0060 H         1    UNL1     0.0481
     58 H15         4.8180   -5.4160   11.6890 H         1    UNL1     0.0481
     59 H16         3.8210   -6.7160   11.0520 H         1    UNL1     0.0481
     60 H17         4.4220   -1.9850    8.1660 H         1    UNL1     0.0334
     61 H18         4.1980   -3.7220    8.4060 H         1    UNL1     0.0334
     62 H19         9.6860    2.2720   11.9660 H         1    UNL1     0.0624
     63 H20         8.1620   -1.1540   13.8660 H         1    UNL1     0.0624
     64 H21         9.5450    0.1990   15.0080 H         1    UNL1     0.0343
     65 H22         7.7100    3.9210   10.7050 H         1    UNL1     0.0235
     66 H23         6.3890    2.9990   10.0290 H         1    UNL1     0.0235
     67 H24         7.4190    3.9460    8.9830 H         1    UNL1     0.0235
     68 H25        10.1170    3.1780   10.2350 H         1    UNL1     0.0235
     69 H26         9.7590    3.2240    8.5250 H         1    UNL1     0.0235
     70 H27        10.3920    1.7640    9.2460 H         1    UNL1     0.0235
     71 H28         7.8670   -3.3570   12.8890 H         1    UNL1     0.0235
     72 H29         7.9590   -3.3240   11.1440 H         1    UNL1     0.0235
     73 H30         6.6220   -4.1260   11.9340 H         1    UNL1     0.0235
     74 H31         6.0470   -1.9920   14.0670 H         1    UNL1     0.0235
     75 H32         4.8530   -2.7990   13.0790 H         1    UNL1     0.0235
     76 H33         4.9310   -1.0540   13.1040 H         1    UNL1     0.0235
     77 H34        10.0730    2.9960   14.0190 H         1    UNL1     0.0235
     78 H35        10.3160    2.4330   15.6550 H         1    UNL1     0.0235
     79 H36         8.7040    2.5010   14.9840 H         1    UNL1     0.0235
     80 H37        11.7420    1.2260   13.2190 H         1    UNL1     0.0235
     81 H38        11.4820   -0.4460   13.6520 H         1    UNL1     0.0235
     82 H39        11.9380    0.7130   14.8770 H         1    UNL1     0.0235
     83 H40         5.2610   -5.3180    6.9150 H         1    UNL1     0.0629
     84 H41         5.6300   -1.1850    6.2460 H         1    UNL1     0.0620
     85 H42         6.4270   -1.6200    3.9950 H         1    UNL1     0.0618
     86 H43         6.6420   -3.9050    3.2050 H         1    UNL1     0.0626
     87 H44         5.5270  -10.9450   11.8840 H         1    UNL1     0.0695
     88 H45         5.6930  -10.7750   13.6120 H         1    UNL1     0.0695
     89 H46         7.9540  -11.1750   11.6690 H         1    UNL1     0.0262
     90 H47         7.3010  -12.3990   12.7320 H         1    UNL1     0.0262
     91 H48         8.1210  -11.0100   13.4010 H         1    UNL1     0.0262
@<TRIPOS>UNITY_ATOM_ATTR
11 1
charge 1
@<TRIPOS>BOND
     1     1     2    2
     2     1     3    2
     3     1     8    1
     4     1    12    1
     5     4    18    2
     6     5    35    1
     7     5    41    1
     8     6    35    2
     9     7    16    1
    10     7    17    1
    11     7    18   am
    12     8    13    1
    13     9    21    1
    14     9    22    1
    15     9    35   am
    16    10    42    1
    17    11    42    2
    18    12    14   ar
    19    12    15   ar
    20    13    18    1
    21    13    24    1
    22    14    19    1
    23    14    25   ar
    24    15    20    1
    25    15    26   ar
    26    16    21    1
    27    17    22    1
    28    19    28    1
    29    19    29    1
    30    20    30    1
    31    20    31    1
    32    23    25   ar
    33    23    26   ar
    34    23    27    1
    35    24    32    1
    36    27    33    1
    37    27    34    1
    38    32    36   ar
    39    32    37   ar
    40    36    38   ar
    41    37    39   ar
    42    38    40   ar
    43    38    42    1
    44    39    40   ar
    45    41    43    1
    46     8    44    1
    47    10    45    1
    48    10    46    1
    49    11    47    1
    50    11    48    1
    51    13    49    1
    52    16    50    1
    53    16    51    1
    54    17    52    1
    55    17    53    1
    56    19    54    1
    57    20    55    1
    58    21    56    1
    59    21    57    1
    60    22    58    1
    61    22    59    1
    62    24    60    1
    63    24    61    1
    64    25    62    1
    65    26    63    1
    66    27    64    1
    67    28    65    1
    68    28    66    1
    69    28    67    1
    70    29    68    1
    71    29    69    1
    72    29    70    1
    73    30    71    1
    74    30    72    1
    75    30    73    1
    76    31    74    1
    77    31    75    1
    78    31    76    1
    79    33    77    1
    80    33    78    1
    81    33    79    1
    82    34    80    1
    83    34    81    1
    84    34    82    1
    85    36    83    1
    86    37    84    1
    87    39    85    1
    88    40    86    1
    89    41    87    1
    90    41    88    1
    91    43    89    1
    92    43    90    1
    93    43    91    1
