#REMARK Cluster   8 of Poses:  1 Score: -7.41 kcal/mol
@<TRIPOS>MOLECULE
9831652
 85 89 0 0 0
SMALL
GASTEIGER

@<TRIPOS>ATOM
      1 CL1         5.6890    3.5740   11.0840 Cl        1    UNL1    -0.0811
      2 CL2        10.8410    3.3250   12.7910 Cl        1    UNL1    -0.0831
      3 S3          6.2020    0.9700    9.2700 S.O2      1    UNL1     0.0629
      4 O4          5.2480    2.0200    8.9640 O.2       1    UNL1    -0.1528
      5 O5          6.8540    0.2340    8.2030 O.2       1    UNL1    -0.1528
      6 O6          5.3970   -2.4260    9.2200 O.2       1    UNL1    -0.2740
      7 O7          8.2520    5.7060   11.9060 O.3       1    UNL1    -0.4851
      8 O8          5.7700   -7.1480   13.3790 O.2       1    UNL1    -0.2702
      9 N9          5.5070   -0.1260   10.3690 N.3       1    UNL1    -0.1647
     10 N10         6.5730   -3.5420   10.8910 N.am      1    UNL1    -0.3139
     11 N11         5.6690   -7.5140   11.0900 N.am      1    UNL1    -0.3113
     12 N12         9.5820    5.0000    9.6000 N.ar      1    UNL1    -0.2482
     13 N13        -1.2840   -8.6390   11.6770 N.pl3     1    UNL1    -0.2497
     14 N14        -1.0750   -8.4150   13.9940 N.2       1    UNL1    -0.2884
     15 C15         6.3890   -1.1610   10.9760 C.3       1    UNL1     0.1078
     16 C16         6.0050   -1.2190   12.4500 C.3       1    UNL1    -0.0260
     17 C17         4.5910   -0.6650   12.4850 C.3       1    UNL1    -0.0366
     18 C18         4.6370    0.4360   11.4390 C.3       1    UNL1     0.0214
     19 C19         6.0630   -2.4240   10.2520 C.2       1    UNL1     0.2319
     20 C20         7.4660    1.6790   10.2810 C.ar      1    UNL1     0.1242
     21 C21         6.3770   -4.8880   10.4050 C.3       1    UNL1     0.0131
     22 C22         7.2460    2.8100   11.0680 C.ar      1    UNL1     0.0750
     23 C23         8.7200    1.0680   10.2740 C.ar      1    UNL1    -0.0325
     24 C24         7.4720   -5.8450   10.8730 C.3       1    UNL1    -0.0217
     25 C25         8.2800    3.3290   11.8480 C.ar      1    UNL1     0.0281
     26 C26         9.7530    1.5870   11.0540 C.ar      1    UNL1    -0.0411
     27 C27         9.5330    2.7180   11.8410 C.ar      1    UNL1     0.0489
     28 C28         7.0670   -7.3170   10.8230 C.3       1    UNL1     0.0133
     29 C29         8.0500    4.5440   12.6960 C.3       1    UNL1     0.1175
     30 C30         9.5500    6.0990   11.7020 C.ar      1    UNL1     0.1468
     31 C31         5.1260   -7.4120   12.3660 C.2       1    UNL1     0.2441
     32 C32        10.2130    5.7370   10.5330 C.ar      1    UNL1     0.1130
     33 C33        11.5470    6.1640   10.3670 C.ar      1    UNL1     0.0069
     34 C34        10.1730    6.8640   12.6910 C.ar      1    UNL1    -0.0178
     35 C35         3.6680   -7.6700   12.4790 C.ar      1    UNL1     0.0367
     36 C36        12.2150    5.8000    9.1900 C.ar      1    UNL1    -0.0395
     37 C37        12.1750    6.9330   11.3620 C.ar      1    UNL1    -0.0521
     38 C38        11.4880    7.2810   12.5210 C.ar      1    UNL1    -0.0576
     39 C39        10.2620    4.6680    8.4780 C.ar      1    UNL1     0.0393
     40 C40        11.5670    5.0390    8.2270 C.ar      1    UNL1    -0.0371
     41 C41        13.6300    6.2030    8.9190 C.3       1    UNL1    -0.0390
     42 C42         2.7730   -6.6010   12.5370 C.ar      1    UNL1    -0.0488
     43 C43         3.1930   -8.9800   12.5290 C.ar      1    UNL1    -0.0488
     44 C44         9.5260    3.8500    7.4700 C.3       1    UNL1    -0.0223
     45 C45         1.4030   -6.8430   12.6440 C.ar      1    UNL1    -0.0463
     46 C46         1.8240   -9.2230   12.6360 C.ar      1    UNL1    -0.0463
     47 C47         0.9290   -8.1540   12.6930 C.ar      1    UNL1     0.0608
     48 C48        -0.4990   -8.4070   12.8050 C.2       1    UNL1     0.2662
     49 H1          7.0940   -3.4120   11.7160 H         1    UNL1     0.1487
     50 H2          5.0700   -7.7300   10.3390 H         1    UNL1     0.1490
     51 H3         -2.2210   -8.3370   11.6590 H         1    UNL1     0.2883
     52 H4         -0.9020   -9.1050   10.8980 H         1    UNL1     0.2883
     53 H5         -2.0420   -8.5860   14.0710 H         1    UNL1     0.3009
     54 H6         -0.5390   -8.2500   14.8020 H         1    UNL1     0.3009
     55 H7          7.4400   -0.9740   10.9020 H         1    UNL1     0.0575
     56 H8          6.6650   -0.6160   13.0390 H         1    UNL1     0.0286
     57 H9          6.0700   -2.2080   12.8540 H         1    UNL1     0.0286
     58 H10         4.3550   -0.2700   13.4510 H         1    UNL1     0.0279
     59 H11         3.8410   -1.4030   12.2910 H         1    UNL1     0.0279
     60 H12         3.6580    0.6460   11.0630 H         1    UNL1     0.0444
     61 H13         5.0070    1.3610   11.8290 H         1    UNL1     0.0444
     62 H14         6.3730   -4.8700    9.3350 H         1    UNL1     0.0462
     63 H15         5.4470   -5.2430   10.7970 H         1    UNL1     0.0462
     64 H16         8.8830    0.2310    9.6920 H         1    UNL1     0.0638
     65 H17         7.7260   -5.5990   11.8830 H         1    UNL1     0.0295
     66 H18         8.2970   -5.7260   10.2020 H         1    UNL1     0.0295
     67 H19        10.6810    1.1340   11.0490 H         1    UNL1     0.0633
     68 H20         7.2870   -7.7000    9.8490 H         1    UNL1     0.0462
     69 H21         7.6180   -7.8310   11.5830 H         1    UNL1     0.0462
     70 H22         7.0480    4.5350   13.0710 H         1    UNL1     0.0749
     71 H23         8.7350    4.5430   13.5180 H         1    UNL1     0.0749
     72 H24         9.6580    7.1180   13.5480 H         1    UNL1     0.0655
     73 H25        13.1510    7.2410   11.2320 H         1    UNL1     0.0624
     74 H26        11.9510    7.8450   13.2500 H         1    UNL1     0.0619
     75 H27        12.0440    4.7620    7.3550 H         1    UNL1     0.0638
     76 H28        14.0000    6.7810    9.7400 H         1    UNL1     0.0278
     77 H29        13.6690    6.7890    8.0250 H         1    UNL1     0.0278
     78 H30        14.2340    5.3280    8.7980 H         1    UNL1     0.0278
     79 H31         3.1240   -5.6310   12.5010 H         1    UNL1     0.0625
     80 H32         3.8550   -9.7710   12.4860 H         1    UNL1     0.0625
     81 H33         8.5350    3.6550    7.8250 H         1    UNL1     0.0292
     82 H34        10.0390    2.9240    7.3190 H         1    UNL1     0.0292
     83 H35         9.4750    4.3850    6.5450 H         1    UNL1     0.0292
     84 H36         0.7410   -6.0530   12.6870 H         1    UNL1     0.0626
     85 H37         1.4730  -10.1920   12.6720 H         1    UNL1     0.0626
@<TRIPOS>UNITY_ATOM_ATTR
14 1
charge 1
@<TRIPOS>BOND
     1     1    22    1
     2     2    27    1
     3     3     4    2
     4     3     5    2
     5     3     9    1
     6     3    20    1
     7     6    19    2
     8     7    29    1
     9     7    30    1
    10     8    31    2
    11     9    15    1
    12     9    18    1
    13    10    19   am
    14    10    21    1
    15    11    28    1
    16    11    31   am
    17    12    32   ar
    18    12    39   ar
    19    13    48    1
    20    14    48    2
    21    15    16    1
    22    15    19    1
    23    16    17    1
    24    17    18    1
    25    20    22   ar
    26    20    23   ar
    27    21    24    1
    28    22    25   ar
    29    23    26   ar
    30    24    28    1
    31    25    27   ar
    32    25    29    1
    33    26    27   ar
    34    30    32   ar
    35    30    34   ar
    36    31    35    1
    37    32    33   ar
    38    33    36   ar
    39    33    37   ar
    40    34    38   ar
    41    35    42   ar
    42    35    43   ar
    43    36    40   ar
    44    36    41    1
    45    37    38   ar
    46    39    40   ar
    47    39    44    1
    48    42    45   ar
    49    43    46   ar
    50    45    47   ar
    51    46    47   ar
    52    47    48    1
    53    10    49    1
    54    11    50    1
    55    13    51    1
    56    13    52    1
    57    14    53    1
    58    14    54    1
    59    15    55    1
    60    16    56    1
    61    16    57    1
    62    17    58    1
    63    17    59    1
    64    18    60    1
    65    18    61    1
    66    21    62    1
    67    21    63    1
    68    23    64    1
    69    24    65    1
    70    24    66    1
    71    26    67    1
    72    28    68    1
    73    28    69    1
    74    29    70    1
    75    29    71    1
    76    34    72    1
    77    37    73    1
    78    38    74    1
    79    40    75    1
    80    41    76    1
    81    41    77    1
    82    41    78    1
    83    42    79    1
    84    43    80    1
    85    44    81    1
    86    44    82    1
    87    44    83    1
    88    45    84    1
    89    46    85    1
