#REMARK Cluster   4 of Poses:  1 Score: -8.11 kcal/mol
@<TRIPOS>MOLECULE
9895193
 91 93 0 0 0
SMALL
GASTEIGER

@<TRIPOS>ATOM
      1 S1          6.2100   -1.1910   10.2780 S.O2      1    UNL1     0.0596
      2 O2          5.4710   -0.7980    9.0940 O.2       1    UNL1    -0.1530
      3 O3          7.5800   -0.7520   10.4630 O.2       1    UNL1    -0.1530
      4 O4          4.8750   -5.8610    9.5830 O.2       1    UNL1    -0.2738
      5 O5         11.0060   -7.8540   11.8850 O.3       1    UNL1    -0.4505
      6 O6         11.3450   -5.7740   12.7710 O.2       1    UNL1    -0.2263
      7 N7          6.9110   -5.5050   10.6430 N.am      1    UNL1    -0.2972
      8 N8          6.1430   -2.8840   10.4470 N.3       1    UNL1    -0.1777
      9 N9          9.5890   -6.1390   11.2930 N.am      1    UNL1    -0.2644
     10 N10         7.3880   -7.1660    4.2040 N.pl3     1    UNL1    -0.2497
     11 N11         5.1380   -6.9540    3.6090 N.2       1    UNL1    -0.2884
     12 C12         5.3000   -0.6510   11.6940 C.ar      1    UNL1     0.1121
     13 C13         5.8710   -3.7330    9.2730 C.3       1    UNL1     0.1089
     14 C14         4.4790   -1.5460   12.3790 C.ar      1    UNL1    -0.0179
     15 C15         5.4030    0.6720   12.1250 C.ar      1    UNL1    -0.0179
     16 C16         7.3270   -6.9090   10.6970 C.3       1    UNL1     0.0307
     17 C17         7.6710   -4.6100   11.5250 C.3       1    UNL1     0.0307
     18 C18         5.8330   -5.1290    9.8430 C.2       1    UNL1     0.2346
     19 C19         4.3460   -2.9710   11.9470 C.3       1    UNL1    -0.0196
     20 C20         6.2710    1.6600   11.4160 C.3       1    UNL1    -0.0196
     21 C21         8.8230   -7.0430   10.4270 C.3       1    UNL1     0.0336
     22 C22         9.1690   -4.7370   11.2590 C.3       1    UNL1     0.0336
     23 C23         3.8620    0.2030   13.9260 C.ar      1    UNL1    -0.0441
     24 C24         6.9830   -3.6120    8.2420 C.3       1    UNL1    -0.0021
     25 C25         3.7600   -1.1190   13.4950 C.ar      1    UNL1    -0.0530
     26 C26         4.6840    1.0990   13.2420 C.ar      1    UNL1    -0.0530
     27 C27         3.0930    0.6610   15.1190 C.3       1    UNL1    -0.0215
     28 C28         4.1810   -3.9310   13.1390 C.3       1    UNL1    -0.0586
     29 C29         3.1940   -3.1740   10.9460 C.3       1    UNL1    -0.0586
     30 C30         5.4590    2.8000   10.7760 C.3       1    UNL1    -0.0586
     31 C31         7.3640    2.2420   12.3300 C.3       1    UNL1    -0.0586
     32 C32         6.4730   -3.7740    6.8310 C.ar      1    UNL1    -0.0446
     33 C33         2.2820    1.9410   14.8420 C.3       1    UNL1    -0.0586
     34 C34         3.9900    0.8680   16.3540 C.3       1    UNL1    -0.0586
     35 C35        10.7010   -6.5290   12.0440 C.2       1    UNL1     0.4029
     36 C36         6.5680   -5.0100    6.1920 C.ar      1    UNL1    -0.0438
     37 C37         5.9070   -2.6860    6.1660 C.ar      1    UNL1    -0.0585
     38 C38         6.0960   -5.1580    4.8870 C.ar      1    UNL1     0.0611
     39 C39         5.4350   -2.8350    4.8620 C.ar      1    UNL1    -0.0607
     40 C40         5.5290   -4.0710    4.2230 C.ar      1    UNL1    -0.0470
     41 C41        10.1720   -8.7830   12.5870 C.3       1    UNL1     0.0913
     42 C42         6.1950   -6.4470    4.2200 C.2       1    UNL1     0.2662
     43 C43        10.2350  -10.1260   11.8920 C.3       1    UNL1    -0.0305
     44 H1          5.4110   -3.0830   11.1290 H         1    UNL1     0.1489
     45 H2          7.7950   -7.4260    3.3460 H         1    UNL1     0.2883
     46 H3          7.8260   -7.4130    5.0510 H         1    UNL1     0.2883
     47 H4          5.2030   -7.8260    3.1570 H         1    UNL1     0.3009
     48 H5          4.2870   -6.4600    3.6060 H         1    UNL1     0.3009
     49 H6          4.9680   -3.4600    8.7690 H         1    UNL1     0.0576
     50 H7          6.7870   -7.4630    9.9580 H         1    UNL1     0.0480
     51 H8          7.1200   -7.2900   11.6750 H         1    UNL1     0.0480
     52 H9          7.4720   -4.8680   12.5440 H         1    UNL1     0.0480
     53 H10         7.3720   -3.6010   11.3330 H         1    UNL1     0.0480
     54 H11         5.2650   -3.2070   11.4520 H         1    UNL1     0.0344
     55 H12         6.7490    1.1100   10.6320 H         1    UNL1     0.0344
     56 H13         9.1260   -8.0510   10.6170 H         1    UNL1     0.0481
     57 H14         9.0130   -6.7840    9.4060 H         1    UNL1     0.0481
     58 H15         9.3890   -4.3290   10.2950 H         1    UNL1     0.0481
     59 H16         9.6970   -4.2040   12.0220 H         1    UNL1     0.0481
     60 H17         7.7140   -4.3700    8.4330 H         1    UNL1     0.0334
     61 H18         7.4050   -2.6330    8.3290 H         1    UNL1     0.0334
     62 H19         3.1520   -1.7810   14.0010 H         1    UNL1     0.0624
     63 H20         4.7600    2.0770   13.5610 H         1    UNL1     0.0624
     64 H21         2.4060   -0.1310   15.3340 H         1    UNL1     0.0343
     65 H22         3.2670   -3.7120   13.6490 H         1    UNL1     0.0235
     66 H23         5.0040   -3.8080   13.8120 H         1    UNL1     0.0235
     67 H24         4.1590   -4.9400   12.7830 H         1    UNL1     0.0235
     68 H25         2.2640   -2.9430   11.4200 H         1    UNL1     0.0235
     69 H26         3.1840   -4.1930   10.6170 H         1    UNL1     0.0235
     70 H27         3.3350   -2.5290   10.1040 H         1    UNL1     0.0235
     71 H28         4.9710    3.3650   11.5440 H         1    UNL1     0.0235
     72 H29         4.7250    2.3890   10.1150 H         1    UNL1     0.0235
     73 H30         6.1160    3.4410   10.2260 H         1    UNL1     0.0235
     74 H31         6.9070    2.7970   13.1230 H         1    UNL1     0.0235
     75 H32         7.9980    2.8890   11.7610 H         1    UNL1     0.0235
     76 H33         7.9460    1.4450   12.7430 H         1    UNL1     0.0235
     77 H34         2.9510    2.7470   14.6240 H         1    UNL1     0.0235
     78 H35         1.6960    2.1850   15.7030 H         1    UNL1     0.0235
     79 H36         1.6350    1.7780   14.0050 H         1    UNL1     0.0235
     80 H37         4.6860    1.6580   16.1610 H         1    UNL1     0.0235
     81 H38         4.5240   -0.0350   16.5630 H         1    UNL1     0.0235
     82 H39         3.3820    1.1270   17.1970 H         1    UNL1     0.0235
     83 H40         6.9870   -5.8140    6.6840 H         1    UNL1     0.0629
     84 H41         5.8370   -1.7720    6.6390 H         1    UNL1     0.0620
     85 H42         5.0160   -2.0300    4.3700 H         1    UNL1     0.0618
     86 H43         5.1800   -4.1810    3.2580 H         1    UNL1     0.0626
     87 H44         9.1630   -8.4280   12.5910 H         1    UNL1     0.0695
     88 H45        10.5130   -8.8830   13.5970 H         1    UNL1     0.0695
     89 H46         9.8940  -10.0220   10.8830 H         1    UNL1     0.0262
     90 H47         9.6110  -10.8250   12.4090 H         1    UNL1     0.0262
     91 H48        11.2450  -10.4810   11.8920 H         1    UNL1     0.0262
@<TRIPOS>UNITY_ATOM_ATTR
11 1
charge 1
@<TRIPOS>BOND
     1     1     2    2
     2     1     3    2
     3     1     8    1
     4     1    12    1
     5     4    18    2
     6     5    35    1
     7     5    41    1
     8     6    35    2
     9     7    16    1
    10     7    17    1
    11     7    18   am
    12     8    13    1
    13     9    21    1
    14     9    22    1
    15     9    35   am
    16    10    42    1
    17    11    42    2
    18    12    14   ar
    19    12    15   ar
    20    13    18    1
    21    13    24    1
    22    14    19    1
    23    14    25   ar
    24    15    20    1
    25    15    26   ar
    26    16    21    1
    27    17    22    1
    28    19    28    1
    29    19    29    1
    30    20    30    1
    31    20    31    1
    32    23    25   ar
    33    23    26   ar
    34    23    27    1
    35    24    32    1
    36    27    33    1
    37    27    34    1
    38    32    36   ar
    39    32    37   ar
    40    36    38   ar
    41    37    39   ar
    42    38    40   ar
    43    38    42    1
    44    39    40   ar
    45    41    43    1
    46     8    44    1
    47    10    45    1
    48    10    46    1
    49    11    47    1
    50    11    48    1
    51    13    49    1
    52    16    50    1
    53    16    51    1
    54    17    52    1
    55    17    53    1
    56    19    54    1
    57    20    55    1
    58    21    56    1
    59    21    57    1
    60    22    58    1
    61    22    59    1
    62    24    60    1
    63    24    61    1
    64    25    62    1
    65    26    63    1
    66    27    64    1
    67    28    65    1
    68    28    66    1
    69    28    67    1
    70    29    68    1
    71    29    69    1
    72    29    70    1
    73    30    71    1
    74    30    72    1
    75    30    73    1
    76    31    74    1
    77    31    75    1
    78    31    76    1
    79    33    77    1
    80    33    78    1
    81    33    79    1
    82    34    80    1
    83    34    81    1
    84    34    82    1
    85    36    83    1
    86    37    84    1
    87    39    85    1
    88    40    86    1
    89    41    87    1
    90    41    88    1
    91    43    89    1
    92    43    90    1
    93    43    91    1
