#REMARK Cluster   7 of Poses:  1 Score: -7.67 kcal/mol
@<TRIPOS>MOLECULE
9831652
 85 89 0 0 0
SMALL
GASTEIGER

@<TRIPOS>ATOM
      1 CL1         3.7420   -4.1030   13.9410 Cl        1    UNL1    -0.0811
      2 CL2         1.2980   -8.7140   12.4290 Cl        1    UNL1    -0.0831
      3 S3          5.9210   -4.5390   11.6170 S.O2      1    UNL1     0.0629
      4 O4          5.6090   -3.3210   12.3410 O.2       1    UNL1    -0.1528
      5 O5          7.1660   -5.2430   11.8640 O.2       1    UNL1    -0.1528
      6 O6          4.9040   -2.0360    8.3690 O.2       1    UNL1    -0.2740
      7 O7          2.2470   -6.3270   15.4260 O.3       1    UNL1    -0.4851
      8 O8          9.1880    2.3160   10.5930 O.2       1    UNL1    -0.2702
      9 N9          5.7480   -4.2670    9.9470 N.3       1    UNL1    -0.1647
     10 N10         6.4320   -0.9900    9.7800 N.am      1    UNL1    -0.3139
     11 N11         7.7710    3.5720    9.2520 N.am      1    UNL1    -0.3113
     12 N12         1.6130   -4.3840   17.2730 N.ar      1    UNL1    -0.2482
     13 N13        14.5860    6.4000    8.4330 N.pl3     1    UNL1    -0.2497
     14 N14        13.0890    8.1740    8.7100 N.2       1    UNL1    -0.2884
     15 C15         6.6870   -3.3150    9.2930 C.3       1    UNL1     0.1078
     16 C16         7.0900   -3.9690    7.9760 C.3       1    UNL1    -0.0260
     17 C17         5.9580   -4.9420    7.6870 C.3       1    UNL1    -0.0366
     18 C18         5.6030   -5.4610    9.0700 C.3       1    UNL1     0.0214
     19 C19         5.8980   -2.0650    9.0900 C.2       1    UNL1     0.2319
     20 C20         4.5980   -5.6770   11.8950 C.ar      1    UNL1     0.1242
     21 C21         5.8670    0.3390    9.7330 C.3       1    UNL1     0.0131
     22 C22         3.6530   -5.4910   12.9040 C.ar      1    UNL1     0.0750
     23 C23         4.5190   -6.7940   11.0630 C.ar      1    UNL1    -0.0325
     24 C24         6.7670    1.3330    9.0010 C.3       1    UNL1    -0.0217
     25 C25         2.6280   -6.4210   13.0800 C.ar      1    UNL1     0.0281
     26 C26         3.4950   -7.7240   11.2400 C.ar      1    UNL1    -0.0411
     27 C27         2.5500   -7.5380   12.2480 C.ar      1    UNL1     0.0489
     28 C28         6.5910    2.7790    9.4600 C.3       1    UNL1     0.0133
     29 C29         1.6090   -6.2270   14.1620 C.3       1    UNL1     0.1175
     30 C30         1.4490   -6.6220   16.5010 C.ar      1    UNL1     0.1468
     31 C31         8.9920    3.2700    9.8450 C.2       1    UNL1     0.2441
     32 C32         1.1340   -5.6330   17.4290 C.ar      1    UNL1     0.1130
     33 C33         0.3100   -5.9830   18.5190 C.ar      1    UNL1     0.0069
     34 C34         0.9700   -7.9280   16.6320 C.ar      1    UNL1    -0.0178
     35 C35        10.1100    4.2040    9.5510 C.ar      1    UNL1     0.0367
     36 C36        -0.0070   -4.9870   19.4530 C.ar      1    UNL1    -0.0395
     37 C37        -0.1720   -7.2960   18.6510 C.ar      1    UNL1    -0.0521
     38 C38         0.1580   -8.2660   17.7080 C.ar      1    UNL1    -0.0576
     39 C39         1.2840   -3.4520   18.1970 C.ar      1    UNL1     0.0393
     40 C40         0.4850   -3.7000   19.2950 C.ar      1    UNL1    -0.0371
     41 C41        -0.8740   -5.2570   20.6430 C.3       1    UNL1    -0.0390
     42 C42        10.5630    5.0820   10.5350 C.ar      1    UNL1    -0.0488
     43 C43        10.7060    4.2020    8.2900 C.ar      1    UNL1    -0.0488
     44 C44         1.8360   -2.0820   17.9860 C.3       1    UNL1    -0.0223
     45 C45        11.6120    5.9580   10.2580 C.ar      1    UNL1    -0.0463
     46 C46        11.7550    5.0780    8.0130 C.ar      1    UNL1    -0.0463
     47 C47        12.2090    5.9560    8.9970 C.ar      1    UNL1     0.0608
     48 C48        13.3030    6.8700    8.7090 C.2       1    UNL1     0.2662
     49 H1          7.2350   -1.1380   10.3300 H         1    UNL1     0.1487
     50 H2          7.7130    4.3600    8.6660 H         1    UNL1     0.1490
     51 H3         15.3720    6.9030    8.7470 H         1    UNL1     0.2883
     52 H4         14.7060    5.5660    7.9250 H         1    UNL1     0.2883
     53 H5         13.8290    8.7930    8.5150 H         1    UNL1     0.3009
     54 H6         12.1910    8.5250    8.9050 H         1    UNL1     0.3009
     55 H7          7.5740   -3.0860    9.8470 H         1    UNL1     0.0575
     56 H8          8.0200   -4.4880    8.0780 H         1    UNL1     0.0286
     57 H9          7.2320   -3.2580    7.1890 H         1    UNL1     0.0286
     58 H10         6.2860   -5.7360    7.0490 H         1    UNL1     0.0279
     59 H11         5.1320   -4.4920    7.1780 H         1    UNL1     0.0279
     60 H12         4.5990   -5.8310    9.0920 H         1    UNL1     0.0444
     61 H13         6.2240   -6.2770    9.3780 H         1    UNL1     0.0444
     62 H14         5.7180    0.6850   10.7340 H         1    UNL1     0.0462
     63 H15         4.9440    0.2810    9.1950 H         1    UNL1     0.0462
     64 H16         5.2190   -6.9320   10.3170 H         1    UNL1     0.0638
     65 H17         6.5460    1.2820    7.9550 H         1    UNL1     0.0295
     66 H18         7.7780    1.0570    9.2190 H         1    UNL1     0.0295
     67 H19         3.4370   -8.5510   10.6240 H         1    UNL1     0.0633
     68 H20         5.7830    3.2160    8.9120 H         1    UNL1     0.0462
     69 H21         6.3910    2.7630   10.5110 H         1    UNL1     0.0462
     70 H22         1.1610   -5.2600   14.0620 H         1    UNL1     0.0749
     71 H23         0.8500   -6.9770   14.0800 H         1    UNL1     0.0749
     72 H24         1.2180   -8.6410   15.9290 H         1    UNL1     0.0655
     73 H25        -0.7750   -7.5430   19.4510 H         1    UNL1     0.0624
     74 H26        -0.1970   -9.2290   17.8080 H         1    UNL1     0.0619
     75 H27         0.2620   -2.9550   19.9730 H         1    UNL1     0.0638
     76 H28        -1.1780   -6.2830   20.6370 H         1    UNL1     0.0278
     77 H29        -1.7380   -4.6280   20.6040 H         1    UNL1     0.0278
     78 H30        -0.3240   -5.0540   21.5380 H         1    UNL1     0.0278
     79 H31        10.1220    5.0830   11.4680 H         1    UNL1     0.0625
     80 H32        10.3710    3.5520    7.5610 H         1    UNL1     0.0625
     81 H33         2.4280   -2.0690   17.0950 H         1    UNL1     0.0292
     82 H34         2.4450   -1.8100   18.8230 H         1    UNL1     0.0292
     83 H35         1.0310   -1.3840   17.8900 H         1    UNL1     0.0292
     84 H36        11.9470    6.6080   10.9870 H         1    UNL1     0.0626
     85 H37        12.1960    5.0770    7.0800 H         1    UNL1     0.0626
@<TRIPOS>UNITY_ATOM_ATTR
14 1
charge 1
@<TRIPOS>BOND
     1     1    22    1
     2     2    27    1
     3     3     4    2
     4     3     5    2
     5     3     9    1
     6     3    20    1
     7     6    19    2
     8     7    29    1
     9     7    30    1
    10     8    31    2
    11     9    15    1
    12     9    18    1
    13    10    19   am
    14    10    21    1
    15    11    28    1
    16    11    31   am
    17    12    32   ar
    18    12    39   ar
    19    13    48    1
    20    14    48    2
    21    15    16    1
    22    15    19    1
    23    16    17    1
    24    17    18    1
    25    20    22   ar
    26    20    23   ar
    27    21    24    1
    28    22    25   ar
    29    23    26   ar
    30    24    28    1
    31    25    27   ar
    32    25    29    1
    33    26    27   ar
    34    30    32   ar
    35    30    34   ar
    36    31    35    1
    37    32    33   ar
    38    33    36   ar
    39    33    37   ar
    40    34    38   ar
    41    35    42   ar
    42    35    43   ar
    43    36    40   ar
    44    36    41    1
    45    37    38   ar
    46    39    40   ar
    47    39    44    1
    48    42    45   ar
    49    43    46   ar
    50    45    47   ar
    51    46    47   ar
    52    47    48    1
    53    10    49    1
    54    11    50    1
    55    13    51    1
    56    13    52    1
    57    14    53    1
    58    14    54    1
    59    15    55    1
    60    16    56    1
    61    16    57    1
    62    17    58    1
    63    17    59    1
    64    18    60    1
    65    18    61    1
    66    21    62    1
    67    21    63    1
    68    23    64    1
    69    24    65    1
    70    24    66    1
    71    26    67    1
    72    28    68    1
    73    28    69    1
    74    29    70    1
    75    29    71    1
    76    34    72    1
    77    37    73    1
    78    38    74    1
    79    40    75    1
    80    41    76    1
    81    41    77    1
    82    41    78    1
    83    42    79    1
    84    43    80    1
    85    44    81    1
    86    44    82    1
    87    44    83    1
    88    45    84    1
    89    46    85    1
