#REMARK Cluster  12 of Poses:  1 Score: -6.88 kcal/mol
@<TRIPOS>MOLECULE
9895193
 91 93 0 0 0
SMALL
GASTEIGER

@<TRIPOS>ATOM
      1 S1          3.9500   -4.4620   10.6220 S.O2      1    UNL1     0.0596
      2 O2          4.5200   -5.6330    9.9830 O.2       1    UNL1    -0.1530
      3 O3          2.6420   -3.9780   10.2260 O.2       1    UNL1    -0.1530
      4 O4          6.4590   -0.8410    9.5900 O.2       1    UNL1    -0.2738
      5 O5         11.6360   -2.1880   13.8620 O.3       1    UNL1    -0.4505
      6 O6         12.0590   -4.1290   12.7300 O.2       1    UNL1    -0.2263
      7 N7          8.1930   -2.1570   10.4010 N.am      1    UNL1    -0.2972
      8 N8          5.0650   -3.1790   10.5420 N.3       1    UNL1    -0.1777
      9 N9         10.0910   -2.9580   12.3390 N.am      1    UNL1    -0.2644
     10 N10         5.8000   -6.5740    2.9580 N.pl3     1    UNL1    -0.2497
     11 N11         3.9620   -5.3830    3.7740 N.2       1    UNL1    -0.2884
     12 C12         3.8800   -4.7710   12.3610 C.ar      1    UNL1     0.1121
     13 C13         6.1280   -3.1860    9.5200 C.3       1    UNL1     0.1089
     14 C14         3.5080   -6.0300   12.8320 C.ar      1    UNL1    -0.0179
     15 C15         4.1950   -3.7550   13.2630 C.ar      1    UNL1    -0.0179
     16 C16         8.7560   -1.1590   11.3140 C.3       1    UNL1     0.0307
     17 C17         9.0800   -3.2920   10.1160 C.3       1    UNL1     0.0307
     18 C18         6.9350   -1.9520    9.8360 C.2       1    UNL1     0.2346
     19 C19         3.1650   -7.1440   11.8960 C.3       1    UNL1    -0.0196
     20 C20         4.5960   -2.3930   12.7970 C.3       1    UNL1    -0.0196
     21 C21         9.2160   -1.8120   12.6150 C.3       1    UNL1     0.0336
     22 C22         9.5430   -3.9510   11.4130 C.3       1    UNL1     0.0336
     23 C23         3.7670   -5.2570   15.1060 C.ar      1    UNL1    -0.0441
     24 C24         5.5410   -3.0920    8.1200 C.3       1    UNL1    -0.0021
     25 C25         3.4510   -6.2730   14.2040 C.ar      1    UNL1    -0.0530
     26 C26         4.1390   -3.9980   14.6360 C.ar      1    UNL1    -0.0530
     27 C27         3.7050   -5.5170   16.5730 C.3       1    UNL1    -0.0215
     28 C28         4.1750   -8.3030   11.9690 C.3       1    UNL1    -0.0586
     29 C29         1.7380   -7.6770   12.1170 C.3       1    UNL1    -0.0586
     30 C30         3.5190   -1.3330   13.0880 C.3       1    UNL1    -0.0586
     31 C31         5.9460   -1.9460   13.3860 C.3       1    UNL1    -0.0586
     32 C32         6.0880   -4.1550    7.1990 C.ar      1    UNL1    -0.0446
     33 C33         4.7270   -6.5770   17.0270 C.3       1    UNL1    -0.0586
     34 C34         2.2940   -5.9170   17.0420 C.3       1    UNL1    -0.0586
     35 C35        11.3240   -3.1700   12.9590 C.2       1    UNL1     0.4029
     36 C36         5.4050   -4.4820    6.0280 C.ar      1    UNL1    -0.0438
     37 C37         7.2770   -4.8100    7.5190 C.ar      1    UNL1    -0.0585
     38 C38         5.9120   -5.4640    5.1760 C.ar      1    UNL1     0.0611
     39 C39         7.7840   -5.7920    6.6680 C.ar      1    UNL1    -0.0607
     40 C40         7.1010   -6.1190    5.4970 C.ar      1    UNL1    -0.0470
     41 C41        13.0300   -1.9870   14.1200 C.3       1    UNL1     0.0913
     42 C42         5.2010   -5.8060    3.9550 C.2       1    UNL1     0.2662
     43 C43        13.6430   -1.2370   12.9570 C.3       1    UNL1    -0.0305
     44 H1          5.5290   -3.1350   11.4490 H         1    UNL1     0.1489
     45 H2          6.2820   -6.1340    2.2210 H         1    UNL1     0.2883
     46 H3          5.7410   -7.5560    2.9900 H         1    UNL1     0.2883
     47 H4          3.4790   -5.6140    2.9480 H         1    UNL1     0.3009
     48 H5          3.5230   -4.8370    4.4650 H         1    UNL1     0.3009
     49 H6          6.7090   -4.0850    9.5390 H         1    UNL1     0.0576
     50 H7          8.0090   -0.4260   11.5360 H         1    UNL1     0.0480
     51 H8          9.6010   -0.7020   10.8430 H         1    UNL1     0.0480
     52 H9          9.9350   -2.9430    9.5750 H         1    UNL1     0.0480
     53 H10         8.5430   -4.0130    9.5360 H         1    UNL1     0.0480
     54 H11         3.2140   -6.7190   10.9150 H         1    UNL1     0.0344
     55 H12         4.7060   -2.4750   11.7360 H         1    UNL1     0.0344
     56 H13         9.7530   -1.0930   13.1980 H         1    UNL1     0.0481
     57 H14         8.3570   -2.1570   13.1500 H         1    UNL1     0.0481
     58 H15         8.7100   -4.4380   11.8750 H         1    UNL1     0.0481
     59 H16        10.3100   -4.6600   11.1800 H         1    UNL1     0.0481
     60 H17         5.7740   -2.1300    7.7130 H         1    UNL1     0.0334
     61 H18         4.4840   -3.2370    8.1970 H         1    UNL1     0.0334
     62 H19         3.1760   -7.2050   14.5520 H         1    UNL1     0.0624
     63 H20         4.3720   -3.2460   15.3030 H         1    UNL1     0.0624
     64 H21         3.9600   -4.5860   17.0360 H         1    UNL1     0.0343
     65 H22         4.1430   -8.7430   12.9430 H         1    UNL1     0.0235
     66 H23         5.1600   -7.9300   11.7790 H         1    UNL1     0.0235
     67 H24         3.9260   -9.0400   11.2350 H         1    UNL1     0.0235
     68 H25         1.6650   -8.1070   13.0940 H         1    UNL1     0.0235
     69 H26         1.5180   -8.4220   11.3810 H         1    UNL1     0.0235
     70 H27         1.0390   -6.8720   12.0290 H         1    UNL1     0.0235
     71 H28         3.3930   -1.2340   14.1460 H         1    UNL1     0.0235
     72 H29         2.5930   -1.6340   12.6450 H         1    UNL1     0.0235
     73 H30         3.8220   -0.3930   12.6760 H         1    UNL1     0.0235
     74 H31         5.8590   -1.8570   14.4490 H         1    UNL1     0.0235
     75 H32         6.2200   -0.9990   12.9700 H         1    UNL1     0.0235
     76 H33         6.6970   -2.6700   13.1480 H         1    UNL1     0.0235
     77 H34         4.4890   -7.5170   16.5750 H         1    UNL1     0.0235
     78 H35         4.6910   -6.6740   18.0920 H         1    UNL1     0.0235
     79 H36         5.7090   -6.2760   16.7300 H         1    UNL1     0.0235
     80 H37         2.0180   -6.8470   16.5900 H         1    UNL1     0.0235
     81 H38         1.5940   -5.1600   16.7550 H         1    UNL1     0.0235
     82 H39         2.2880   -6.0220   18.1070 H         1    UNL1     0.0235
     83 H40         4.5260   -3.9980    5.7910 H         1    UNL1     0.0629
     84 H41         7.7830   -4.5680    8.3860 H         1    UNL1     0.0620
     85 H42         8.6640   -6.2770    6.9050 H         1    UNL1     0.0618
     86 H43         7.4760   -6.8460    4.8670 H         1    UNL1     0.0626
     87 H44        13.5150   -2.9340   14.2310 H         1    UNL1     0.0695
     88 H45        13.1540   -1.4220   15.0200 H         1    UNL1     0.0695
     89 H46        13.5180   -1.8050   12.0590 H         1    UNL1     0.0262
     90 H47        14.6870   -1.0850   13.1400 H         1    UNL1     0.0262
     91 H48        13.1590   -0.2890   12.8490 H         1    UNL1     0.0262
@<TRIPOS>UNITY_ATOM_ATTR
11 1
charge 1
@<TRIPOS>BOND
     1     1     2    2
     2     1     3    2
     3     1     8    1
     4     1    12    1
     5     4    18    2
     6     5    35    1
     7     5    41    1
     8     6    35    2
     9     7    16    1
    10     7    17    1
    11     7    18   am
    12     8    13    1
    13     9    21    1
    14     9    22    1
    15     9    35   am
    16    10    42    1
    17    11    42    2
    18    12    14   ar
    19    12    15   ar
    20    13    18    1
    21    13    24    1
    22    14    19    1
    23    14    25   ar
    24    15    20    1
    25    15    26   ar
    26    16    21    1
    27    17    22    1
    28    19    28    1
    29    19    29    1
    30    20    30    1
    31    20    31    1
    32    23    25   ar
    33    23    26   ar
    34    23    27    1
    35    24    32    1
    36    27    33    1
    37    27    34    1
    38    32    36   ar
    39    32    37   ar
    40    36    38   ar
    41    37    39   ar
    42    38    40   ar
    43    38    42    1
    44    39    40   ar
    45    41    43    1
    46     8    44    1
    47    10    45    1
    48    10    46    1
    49    11    47    1
    50    11    48    1
    51    13    49    1
    52    16    50    1
    53    16    51    1
    54    17    52    1
    55    17    53    1
    56    19    54    1
    57    20    55    1
    58    21    56    1
    59    21    57    1
    60    22    58    1
    61    22    59    1
    62    24    60    1
    63    24    61    1
    64    25    62    1
    65    26    63    1
    66    27    64    1
    67    28    65    1
    68    28    66    1
    69    28    67    1
    70    29    68    1
    71    29    69    1
    72    29    70    1
    73    30    71    1
    74    30    72    1
    75    30    73    1
    76    31    74    1
    77    31    75    1
    78    31    76    1
    79    33    77    1
    80    33    78    1
    81    33    79    1
    82    34    80    1
    83    34    81    1
    84    34    82    1
    85    36    83    1
    86    37    84    1
    87    39    85    1
    88    40    86    1
    89    41    87    1
    90    41    88    1
    91    43    89    1
    92    43    90    1
    93    43    91    1
