#REMARK Cluster   9 of Poses:  1 Score: -7.34 kcal/mol
@<TRIPOS>MOLECULE
9831652
 85 89 0 0 0
SMALL
GASTEIGER

@<TRIPOS>ATOM
      1 CL1         6.5010   -0.0420    9.0530 Cl        1    UNL1    -0.0811
      2 CL2         9.7050   -1.9740   12.9920 Cl        1    UNL1    -0.0831
      3 S3          5.0650   -2.9130    8.8630 S.O2      1    UNL1     0.0629
      4 O4          4.2500   -3.9730    9.4250 O.2       1    UNL1    -0.1528
      5 O5          4.4690   -1.6400    8.5020 O.2       1    UNL1    -0.1528
      6 O6          8.4300   -4.4960    7.6260 O.2       1    UNL1    -0.2740
      7 O7          7.9030    1.1700   10.4520 O.3       1    UNL1    -0.4851
      8 O8         10.8000   -8.7880   13.2650 O.2       1    UNL1    -0.2702
      9 N9          5.9490   -3.5160    7.5410 N.3       1    UNL1    -0.1647
     10 N10         7.6140   -6.4750    8.5400 N.am      1    UNL1    -0.3139
     11 N11        10.9410   -8.2750   11.0070 N.am      1    UNL1    -0.3113
     12 N12         9.7380    3.0360    9.5910 N.ar      1    UNL1    -0.2482
     13 N13        13.1410  -14.9450    9.9370 N.pl3     1    UNL1    -0.2497
     14 N14        14.1820  -14.8090   12.0260 N.2       1    UNL1    -0.2884
     15 C15         6.1100   -4.9920    7.4240 C.3       1    UNL1     0.1078
     16 C16         5.8930   -5.3160    5.9500 C.3       1    UNL1    -0.0260
     17 C17         6.1900   -4.0070    5.2380 C.3       1    UNL1    -0.0366
     18 C18         5.6270   -2.9700    6.1950 C.3       1    UNL1     0.0214
     19 C19         7.5070   -5.2690    7.8690 C.2       1    UNL1     0.2319
     20 C20         6.3750   -2.5870   10.0030 C.ar      1    UNL1     0.1242
     21 C21         8.8640   -6.9860    9.0540 C.3       1    UNL1     0.0131
     22 C22         7.0000   -1.3430   10.0860 C.ar      1    UNL1     0.0750
     23 C23         6.7800   -3.6280   10.8380 C.ar      1    UNL1    -0.0325
     24 C24         8.9720   -6.8550   10.5710 C.3       1    UNL1    -0.0217
     25 C25         8.0310   -1.1400   11.0040 C.ar      1    UNL1     0.0281
     26 C26         7.8110   -3.4250   11.7560 C.ar      1    UNL1    -0.0411
     27 C27         8.4360   -2.1810   11.8390 C.ar      1    UNL1     0.0489
     28 C28        10.4020   -6.9460   11.0980 C.3       1    UNL1     0.0133
     29 C29         8.7070    0.1950   11.1000 C.3       1    UNL1     0.1175
     30 C30         7.9140    2.4340   10.9830 C.ar      1    UNL1     0.1468
     31 C31        11.0980   -9.1000   12.1150 C.2       1    UNL1     0.2441
     32 C32         8.8450    3.3700   10.5410 C.ar      1    UNL1     0.1130
     33 C33         8.8170    4.6570   11.1180 C.ar      1    UNL1     0.0069
     34 C34         6.9720    2.7460   11.9680 C.ar      1    UNL1    -0.0178
     35 C35        11.6940  -10.4360   11.8570 C.ar      1    UNL1     0.0367
     36 C36         9.7540    5.6000   10.6730 C.ar      1    UNL1    -0.0395
     37 C37         7.8700    4.9710   12.1080 C.ar      1    UNL1    -0.0521
     38 C38         6.9510    4.0160   12.5310 C.ar      1    UNL1    -0.0576
     39 C39        10.6260    3.9750    9.1900 C.ar      1    UNL1     0.0393
     40 C40        10.6760    5.2590    9.6940 C.ar      1    UNL1    -0.0371
     41 C41         9.8060    6.9910   11.2210 C.3       1    UNL1    -0.0390
     42 C42        10.9540  -11.4130   11.1900 C.ar      1    UNL1    -0.0488
     43 C43        12.9930  -10.7140   12.2820 C.ar      1    UNL1    -0.0488
     44 C44        11.5980    3.5640    8.1350 C.3       1    UNL1    -0.0223
     45 C45        11.5130  -12.6670   10.9480 C.ar      1    UNL1    -0.0463
     46 C46        13.5520  -11.9690   12.0400 C.ar      1    UNL1    -0.0463
     47 C47        12.8130  -12.9450   11.3730 C.ar      1    UNL1     0.0608
     48 C48        13.3960  -14.2530   11.1210 C.2       1    UNL1     0.2662
     49 H1          6.7990   -7.0110    8.6740 H         1    UNL1     0.1487
     50 H2         11.2100   -8.6160   10.1230 H         1    UNL1     0.1490
     51 H3         13.5070  -15.8490    9.8070 H         1    UNL1     0.2883
     52 H4         12.5960  -14.5280    9.2320 H         1    UNL1     0.2883
     53 H5         14.5770  -15.6950   11.8560 H         1    UNL1     0.3009
     54 H6         14.3710  -14.3390   12.8690 H         1    UNL1     0.3009
     55 H7          5.4310   -5.5790    8.0070 H         1    UNL1     0.0575
     56 H8          4.8830   -5.6240    5.7730 H         1    UNL1     0.0286
     57 H9          6.5110   -6.1200    5.6090 H         1    UNL1     0.0286
     58 H10         5.6980   -3.9640    4.2880 H         1    UNL1     0.0279
     59 H11         7.2290   -3.8670    5.0230 H         1    UNL1     0.0279
     60 H12         6.0960   -2.0200    6.0460 H         1    UNL1     0.0444
     61 H13         4.5790   -2.8060    6.0560 H         1    UNL1     0.0444
     62 H14         9.6680   -6.4400    8.6050 H         1    UNL1     0.0462
     63 H15         8.9130   -8.0270    8.8130 H         1    UNL1     0.0462
     64 H16         6.3180   -4.5490   10.7770 H         1    UNL1     0.0638
     65 H17         8.3970   -7.6390   11.0190 H         1    UNL1     0.0295
     66 H18         8.6060   -5.8830   10.8270 H         1    UNL1     0.0295
     67 H19         8.1100   -4.1950   12.3740 H         1    UNL1     0.0633
     68 H20        11.0210   -6.2850   10.5270 H         1    UNL1     0.0462
     69 H21        10.3850   -6.6740   12.1330 H         1    UNL1     0.0462
     70 H22         8.8320    0.4610   12.1280 H         1    UNL1     0.0749
     71 H23         9.6660    0.1480   10.6280 H         1    UNL1     0.0749
     72 H24         6.2930    2.0330   12.2760 H         1    UNL1     0.0655
     73 H25         7.8570    5.9150   12.5240 H         1    UNL1     0.0624
     74 H26         6.2570    4.2490   13.2580 H         1    UNL1     0.0619
     75 H27        11.3730    5.9400    9.3550 H         1    UNL1     0.0638
     76 H28         9.0440    7.1120   11.9620 H         1    UNL1     0.0278
     77 H29         9.6480    7.6930   10.4280 H         1    UNL1     0.0278
     78 H30        10.7650    7.1650   11.6640 H         1    UNL1     0.0278
     79 H31         9.9930  -11.2070   10.8760 H         1    UNL1     0.0625
     80 H32        13.5400   -9.9910   12.7750 H         1    UNL1     0.0625
     81 H33        11.4180    2.5450    7.8620 H         1    UNL1     0.0292
     82 H34        12.5950    3.6610    8.5120 H         1    UNL1     0.0292
     83 H35        11.4780    4.1900    7.2760 H         1    UNL1     0.0292
     84 H36        10.9660  -13.3900   10.4550 H         1    UNL1     0.0626
     85 H37        14.5140  -12.1740   12.3540 H         1    UNL1     0.0626
@<TRIPOS>UNITY_ATOM_ATTR
14 1
charge 1
@<TRIPOS>BOND
     1     1    22    1
     2     2    27    1
     3     3     4    2
     4     3     5    2
     5     3     9    1
     6     3    20    1
     7     6    19    2
     8     7    29    1
     9     7    30    1
    10     8    31    2
    11     9    15    1
    12     9    18    1
    13    10    19   am
    14    10    21    1
    15    11    28    1
    16    11    31   am
    17    12    32   ar
    18    12    39   ar
    19    13    48    1
    20    14    48    2
    21    15    16    1
    22    15    19    1
    23    16    17    1
    24    17    18    1
    25    20    22   ar
    26    20    23   ar
    27    21    24    1
    28    22    25   ar
    29    23    26   ar
    30    24    28    1
    31    25    27   ar
    32    25    29    1
    33    26    27   ar
    34    30    32   ar
    35    30    34   ar
    36    31    35    1
    37    32    33   ar
    38    33    36   ar
    39    33    37   ar
    40    34    38   ar
    41    35    42   ar
    42    35    43   ar
    43    36    40   ar
    44    36    41    1
    45    37    38   ar
    46    39    40   ar
    47    39    44    1
    48    42    45   ar
    49    43    46   ar
    50    45    47   ar
    51    46    47   ar
    52    47    48    1
    53    10    49    1
    54    11    50    1
    55    13    51    1
    56    13    52    1
    57    14    53    1
    58    14    54    1
    59    15    55    1
    60    16    56    1
    61    16    57    1
    62    17    58    1
    63    17    59    1
    64    18    60    1
    65    18    61    1
    66    21    62    1
    67    21    63    1
    68    23    64    1
    69    24    65    1
    70    24    66    1
    71    26    67    1
    72    28    68    1
    73    28    69    1
    74    29    70    1
    75    29    71    1
    76    34    72    1
    77    37    73    1
    78    38    74    1
    79    40    75    1
    80    41    76    1
    81    41    77    1
    82    41    78    1
    83    42    79    1
    84    43    80    1
    85    44    81    1
    86    44    82    1
    87    44    83    1
    88    45    84    1
    89    46    85    1
