#REMARK Cluster  14 of Poses:  1 Score: -6.90 kcal/mol
@<TRIPOS>MOLECULE
9831652
 85 89 0 0 0
SMALL
GASTEIGER

@<TRIPOS>ATOM
      1 CL1         4.4350   -1.1330   12.2120 Cl        1    UNL1    -0.0811
      2 CL2         8.5990    2.2070   11.1970 Cl        1    UNL1    -0.0831
      3 S3          4.7390   -2.3520    9.2520 S.O2      1    UNL1     0.0629
      4 O4          4.5390   -3.2990   10.3340 O.2       1    UNL1    -0.1528
      5 O5          3.6020   -1.7200    8.6080 O.2       1    UNL1    -0.1528
      6 O6          8.0310   -4.4830    8.3950 O.2       1    UNL1    -0.2740
      7 O7          5.5070    2.1630   12.8990 O.3       1    UNL1    -0.4851
      8 O8          5.0980   -6.8020   12.7240 O.2       1    UNL1    -0.2702
      9 N9          5.7450   -3.0450    8.0690 N.3       1    UNL1    -0.1647
     10 N10         6.7070   -6.1570    9.3220 N.am      1    UNL1    -0.3139
     11 N11         7.0490   -8.0190   12.4160 N.am      1    UNL1    -0.3113
     12 N12         4.7050    4.5820   13.9470 N.ar      1    UNL1    -0.2482
     13 N13         1.8560  -13.1950   12.8480 N.pl3     1    UNL1    -0.2497
     14 N14         2.4970  -13.2000   10.6000 N.2       1    UNL1    -0.2884
     15 C15         5.7040   -4.5240    7.8970 C.3       1    UNL1     0.1078
     16 C16         5.7060   -4.7650    6.3910 C.3       1    UNL1    -0.0260
     17 C17         6.3160   -3.4980    5.8160 C.3       1    UNL1    -0.0366
     18 C18         5.7510   -2.4150    6.7210 C.3       1    UNL1     0.0214
     19 C19         6.9430   -5.0280    8.5570 C.2       1    UNL1     0.2319
     20 C20         5.7930   -1.0690    9.8570 C.ar      1    UNL1     0.1242
     21 C21         7.7460   -6.8530   10.0470 C.3       1    UNL1     0.0131
     22 C22         5.6620   -0.5380   11.1400 C.ar      1    UNL1     0.0750
     23 C23         6.7840   -0.5880    9.0010 C.ar      1    UNL1    -0.0325
     24 C24         8.1700   -6.1170   11.3160 C.3       1    UNL1    -0.0217
     25 C25         6.5220    0.4750   11.5670 C.ar      1    UNL1     0.0281
     26 C26         7.6430    0.4250    9.4280 C.ar      1    UNL1    -0.0411
     27 C27         7.5120    0.9560   10.7110 C.ar      1    UNL1     0.0489
     28 C28         7.9630   -6.9250   12.5950 C.3       1    UNL1     0.0133
     29 C29         6.3870    1.0500   12.9450 C.3       1    UNL1     0.1175
     30 C30         4.5260    2.2180   13.8570 C.ar      1    UNL1     0.1468
     31 C31         5.6700   -7.8650   12.4960 C.2       1    UNL1     0.2441
     32 C32         4.1280    3.4450   14.3800 C.ar      1    UNL1     0.1130
     33 C33         3.1160    3.4500   15.3620 C.ar      1    UNL1     0.0069
     34 C34         3.9500    1.0180   14.2820 C.ar      1    UNL1    -0.0178
     35 C35         4.8620   -9.0990   12.3120 C.ar      1    UNL1     0.0367
     36 C36         2.7150    4.6860   15.8890 C.ar      1    UNL1    -0.0395
     37 C37         2.5360    2.2440   15.7910 C.ar      1    UNL1    -0.0521
     38 C38         2.9540    1.0310   15.2510 C.ar      1    UNL1    -0.0576
     39 C39         4.2900    5.7530   14.4820 C.ar      1    UNL1     0.0393
     40 C40         3.3080    5.8590   15.4460 C.ar      1    UNL1    -0.0371
     41 C41         1.6500    4.7980   16.9350 C.3       1    UNL1    -0.0390
     42 C42         5.1750  -10.2500   13.0350 C.ar      1    UNL1    -0.0488
     43 C43         3.7930   -9.1050   11.4170 C.ar      1    UNL1    -0.0488
     44 C44         4.9550    6.9890   13.9750 C.3       1    UNL1    -0.0223
     45 C45         4.4170  -11.4090   12.8620 C.ar      1    UNL1    -0.0463
     46 C46         3.0350  -10.2640   11.2450 C.ar      1    UNL1    -0.0463
     47 C47         3.3470  -11.4150   11.9670 C.ar      1    UNL1     0.0608
     48 C48         2.5570  -12.6220   11.7870 C.2       1    UNL1     0.2662
     49 H1          5.7870   -6.5030    9.3760 H         1    UNL1     0.1487
     50 H2          7.4140   -8.9130   12.2280 H         1    UNL1     0.1490
     51 H3          2.3450  -13.5820   13.6090 H         1    UNL1     0.2883
     52 H4          0.8720  -13.2130   12.8350 H         1    UNL1     0.2883
     53 H5          1.9630  -14.0170   10.4770 H         1    UNL1     0.3009
     54 H6          2.9870  -12.8130    9.8390 H         1    UNL1     0.3009
     55 H7          4.8530   -5.0150    8.3210 H         1    UNL1     0.0575
     56 H8          4.7100   -4.9070    6.0270 H         1    UNL1     0.0286
     57 H9          6.2500   -5.6450    6.1160 H         1    UNL1     0.0286
     58 H10         6.0120   -3.3500    4.8010 H         1    UNL1     0.0279
     59 H11         7.3850   -3.5140    5.7910 H         1    UNL1     0.0279
     60 H12         6.3740   -1.5460    6.7090 H         1    UNL1     0.0444
     61 H13         4.7800   -2.0860    6.4140 H         1    UNL1     0.0444
     62 H14         8.5990   -6.9550    9.4090 H         1    UNL1     0.0462
     63 H15         7.3560   -7.8050   10.3390 H         1    UNL1     0.0462
     64 H16         6.8810   -0.9800    8.0510 H         1    UNL1     0.0638
     65 H17         7.5980   -5.2150   11.3900 H         1    UNL1     0.0295
     66 H18         9.2200   -5.9300   11.2310 H         1    UNL1     0.0295
     67 H19         8.3760    0.7810    8.7940 H         1    UNL1     0.0633
     68 H20         8.9080   -7.3160   12.9100 H         1    UNL1     0.0462
     69 H21         7.5440   -6.2680   13.3290 H         1    UNL1     0.0462
     70 H22         5.9920    0.3080   13.6060 H         1    UNL1     0.0749
     71 H23         7.3460    1.3630   13.3000 H         1    UNL1     0.0749
     72 H24         4.2640    0.1220   13.8770 H         1    UNL1     0.0655
     73 H25         1.7960    2.2580   16.5100 H         1    UNL1     0.0624
     74 H26         2.5260    0.1470   15.5670 H         1    UNL1     0.0619
     75 H27         3.0250    6.7770   15.8230 H         1    UNL1     0.0638
     76 H28         1.2860    3.8230   17.1790 H         1    UNL1     0.0278
     77 H29         0.8460    5.3960   16.5610 H         1    UNL1     0.0278
     78 H30         2.0580    5.2570   17.8110 H         1    UNL1     0.0278
     79 H31         5.9660  -10.2450   13.6970 H         1    UNL1     0.0625
     80 H32         3.5620   -8.2530   10.8830 H         1    UNL1     0.0625
     81 H33         5.6840    6.7250   13.2380 H         1    UNL1     0.0292
     82 H34         5.4350    7.4940   14.7860 H         1    UNL1     0.0292
     83 H35         4.2230    7.6340   13.5360 H         1    UNL1     0.0292
     84 H36         4.6480  -12.2610   13.3970 H         1    UNL1     0.0626
     85 H37         2.2440  -10.2680   10.5820 H         1    UNL1     0.0626
@<TRIPOS>UNITY_ATOM_ATTR
14 1
charge 1
@<TRIPOS>BOND
     1     1    22    1
     2     2    27    1
     3     3     4    2
     4     3     5    2
     5     3     9    1
     6     3    20    1
     7     6    19    2
     8     7    29    1
     9     7    30    1
    10     8    31    2
    11     9    15    1
    12     9    18    1
    13    10    19   am
    14    10    21    1
    15    11    28    1
    16    11    31   am
    17    12    32   ar
    18    12    39   ar
    19    13    48    1
    20    14    48    2
    21    15    16    1
    22    15    19    1
    23    16    17    1
    24    17    18    1
    25    20    22   ar
    26    20    23   ar
    27    21    24    1
    28    22    25   ar
    29    23    26   ar
    30    24    28    1
    31    25    27   ar
    32    25    29    1
    33    26    27   ar
    34    30    32   ar
    35    30    34   ar
    36    31    35    1
    37    32    33   ar
    38    33    36   ar
    39    33    37   ar
    40    34    38   ar
    41    35    42   ar
    42    35    43   ar
    43    36    40   ar
    44    36    41    1
    45    37    38   ar
    46    39    40   ar
    47    39    44    1
    48    42    45   ar
    49    43    46   ar
    50    45    47   ar
    51    46    47   ar
    52    47    48    1
    53    10    49    1
    54    11    50    1
    55    13    51    1
    56    13    52    1
    57    14    53    1
    58    14    54    1
    59    15    55    1
    60    16    56    1
    61    16    57    1
    62    17    58    1
    63    17    59    1
    64    18    60    1
    65    18    61    1
    66    21    62    1
    67    21    63    1
    68    23    64    1
    69    24    65    1
    70    24    66    1
    71    26    67    1
    72    28    68    1
    73    28    69    1
    74    29    70    1
    75    29    71    1
    76    34    72    1
    77    37    73    1
    78    38    74    1
    79    40    75    1
    80    41    76    1
    81    41    77    1
    82    41    78    1
    83    42    79    1
    84    43    80    1
    85    44    81    1
    86    44    82    1
    87    44    83    1
    88    45    84    1
    89    46    85    1
