#REMARK Cluster  11 of Poses:  1 Score: -7.17 kcal/mol
@<TRIPOS>MOLECULE
9895193
 91 93 0 0 0
SMALL
GASTEIGER

@<TRIPOS>ATOM
      1 S1          7.6330   -4.4020   10.5550 S.O2      1    UNL1     0.0596
      2 O2          8.9820   -4.8510   10.2660 O.2       1    UNL1    -0.1530
      3 O3          6.4970   -5.0780    9.9590 O.2       1    UNL1    -0.1530
      4 O4          5.2440   -0.7830    9.7860 O.2       1    UNL1    -0.2738
      5 O5         10.2570    3.8560   10.2420 O.3       1    UNL1    -0.4505
      6 O6         11.2560    2.9520    8.3950 O.2       1    UNL1    -0.2263
      7 N7          7.2460    0.1830    9.1130 N.am      1    UNL1    -0.2972
      8 N8          7.5160   -2.7340   10.2400 N.3       1    UNL1    -0.1777
      9 N9          9.5270    1.8190    9.4560 N.am      1    UNL1    -0.2644
     10 N10         7.1370   -6.8420    4.4790 N.pl3     1    UNL1    -0.2497
     11 N11         4.8250   -6.7970    4.1450 N.2       1    UNL1    -0.2884
     12 C12         7.4050   -4.4570   12.3070 C.ar      1    UNL1     0.1121
     13 C13         6.9130   -2.2600    8.9810 C.3       1    UNL1     0.1089
     14 C14         8.4870   -4.7330   13.1430 C.ar      1    UNL1    -0.0179
     15 C15         6.1430   -4.2240   12.8530 C.ar      1    UNL1    -0.0179
     16 C16         7.1580    1.3750    9.9610 C.3       1    UNL1     0.0307
     17 C17         8.2380    0.2760    8.0330 C.3       1    UNL1     0.0307
     18 C18         6.3850   -0.8910    9.3310 C.2       1    UNL1     0.2346
     19 C19         9.8540   -4.9840   12.5950 C.3       1    UNL1    -0.0196
     20 C20         4.9600   -3.9280   11.9890 C.3       1    UNL1    -0.0196
     21 C21         8.5270    1.7410   10.5270 C.3       1    UNL1     0.0336
     22 C22         9.6100    0.6400    8.5930 C.3       1    UNL1     0.0336
     23 C23         7.0440   -4.5440   15.0720 C.ar      1    UNL1    -0.0441
     24 C24         5.7770   -3.1700    8.5430 C.3       1    UNL1    -0.0021
     25 C25         8.3060   -4.7770   14.5260 C.ar      1    UNL1    -0.0530
     26 C26         5.9620   -4.2680   14.2360 C.ar      1    UNL1    -0.0530
     27 C27         6.8500   -4.5920   16.5500 C.3       1    UNL1    -0.0215
     28 C28        10.8250   -3.8270   12.8900 C.3       1    UNL1    -0.0586
     29 C29        10.4510   -6.3120   13.0950 C.3       1    UNL1    -0.0586
     30 C30         3.9260   -5.0680   11.9990 C.3       1    UNL1    -0.0586
     31 C31         4.2790   -2.5990   12.3630 C.3       1    UNL1    -0.0586
     32 C32         5.7500   -3.3720    7.0470 C.ar      1    UNL1    -0.0446
     33 C33         5.7610   -5.5990   16.9690 C.3       1    UNL1    -0.0586
     34 C34         6.5390   -3.2070   17.1480 C.3       1    UNL1    -0.0586
     35 C35        10.4160    2.8840    9.2910 C.2       1    UNL1     0.4029
     36 C36         5.8420   -4.6570    6.5150 C.ar      1    UNL1    -0.0438
     37 C37         5.6330   -2.2710    6.1980 C.ar      1    UNL1    -0.0585
     38 C38         5.8170   -4.8430    5.1320 C.ar      1    UNL1     0.0611
     39 C39         5.6080   -2.4570    4.8160 C.ar      1    UNL1    -0.0607
     40 C40         5.7000   -3.7430    4.2830 C.ar      1    UNL1    -0.0470
     41 C41        10.0730    5.1910    9.7560 C.3       1    UNL1     0.0913
     42 C42         5.9130   -6.1830    4.5760 C.2       1    UNL1     0.2662
     43 C43        10.4380    6.1700   10.8520 C.3       1    UNL1    -0.0305
     44 H1          8.4650   -2.3610   10.2710 H         1    UNL1     0.1489
     45 H2          7.6910   -6.7370    3.6720 H         1    UNL1     0.2883
     46 H3          7.4490   -7.4120    5.2190 H         1    UNL1     0.2883
     47 H4          4.8880   -7.7040    3.7680 H         1    UNL1     0.3009
     48 H5          3.9510   -6.3470    4.2020 H         1    UNL1     0.3009
     49 H6          7.6130   -2.2470    8.1710 H         1    UNL1     0.0576
     50 H7          6.4840    1.1810   10.7690 H         1    UNL1     0.0480
     51 H8          6.8030    2.1920    9.3670 H         1    UNL1     0.0480
     52 H9          7.9310    1.0290    7.3370 H         1    UNL1     0.0480
     53 H10         8.3050   -0.6740    7.5450 H         1    UNL1     0.0480
     54 H11         9.7280   -5.0530   11.5340 H         1    UNL1     0.0344
     55 H12         5.3480   -3.8370   10.9960 H         1    UNL1     0.0344
     56 H13         8.4620    2.6900   11.0170 H         1    UNL1     0.0481
     57 H14         8.8250    0.9840   11.2220 H         1    UNL1     0.0481
     58 H15         9.9860   -0.1850    9.1620 H         1    UNL1     0.0481
     59 H16        10.2640    0.8600    7.7760 H         1    UNL1     0.0481
     60 H17         4.8480   -2.7340    8.8480 H         1    UNL1     0.0334
     61 H18         5.9270   -4.1260    9.0000 H         1    UNL1     0.0334
     62 H19         9.1060   -4.9810   15.1440 H         1    UNL1     0.0624
     63 H20         5.0280   -4.0970   14.6400 H         1    UNL1     0.0624
     64 H21         7.7860   -4.9260   16.9470 H         1    UNL1     0.0343
     65 H22        10.9660   -3.7400   13.9470 H         1    UNL1     0.0235
     66 H23        10.4190   -2.9140   12.5070 H         1    UNL1     0.0235
     67 H24        11.7670   -4.0230   12.4200 H         1    UNL1     0.0235
     68 H25        10.5850   -6.2650   14.1560 H         1    UNL1     0.0235
     69 H26        11.3970   -6.4780   12.6230 H         1    UNL1     0.0235
     70 H27         9.7860   -7.1150   12.8550 H         1    UNL1     0.0235
     71 H28         3.5250   -5.1780   12.9840 H         1    UNL1     0.0235
     72 H29         4.4000   -5.9810   11.7030 H         1    UNL1     0.0235
     73 H30         3.1360   -4.8390   11.3150 H         1    UNL1     0.0235
     74 H31         3.8840   -2.6680   13.3550 H         1    UNL1     0.0235
     75 H32         3.4850   -2.4000   11.6760 H         1    UNL1     0.0235
     76 H33         4.9960   -1.8060   12.3200 H         1    UNL1     0.0235
     77 H34         4.8150   -5.2830   16.5810 H         1    UNL1     0.0235
     78 H35         5.7110   -5.6460   18.0360 H         1    UNL1     0.0235
     79 H36         6.0010   -6.5660   16.5800 H         1    UNL1     0.0235
     80 H37         5.6050   -2.8540   16.7630 H         1    UNL1     0.0235
     81 H38         7.3160   -2.5220   16.8830 H         1    UNL1     0.0235
     82 H39         6.4790   -3.2840   18.2140 H         1    UNL1     0.0235
     83 H40         5.9290   -5.4720    7.1430 H         1    UNL1     0.0629
     84 H41         5.5650   -1.3200    6.5920 H         1    UNL1     0.0620
     85 H42         5.5210   -1.6430    4.1870 H         1    UNL1     0.0618
     86 H43         5.6810   -3.8800    3.2600 H         1    UNL1     0.0626
     87 H44         9.0510    5.3320    9.4740 H         1    UNL1     0.0695
     88 H45        10.6990    5.3540    8.9030 H         1    UNL1     0.0695
     89 H46         9.8110    6.0030   11.7020 H         1    UNL1     0.0262
     90 H47        10.3000    7.1700   10.4970 H         1    UNL1     0.0262
     91 H48        11.4610    6.0290   11.1300 H         1    UNL1     0.0262
@<TRIPOS>UNITY_ATOM_ATTR
11 1
charge 1
@<TRIPOS>BOND
     1     1     2    2
     2     1     3    2
     3     1     8    1
     4     1    12    1
     5     4    18    2
     6     5    35    1
     7     5    41    1
     8     6    35    2
     9     7    16    1
    10     7    17    1
    11     7    18   am
    12     8    13    1
    13     9    21    1
    14     9    22    1
    15     9    35   am
    16    10    42    1
    17    11    42    2
    18    12    14   ar
    19    12    15   ar
    20    13    18    1
    21    13    24    1
    22    14    19    1
    23    14    25   ar
    24    15    20    1
    25    15    26   ar
    26    16    21    1
    27    17    22    1
    28    19    28    1
    29    19    29    1
    30    20    30    1
    31    20    31    1
    32    23    25   ar
    33    23    26   ar
    34    23    27    1
    35    24    32    1
    36    27    33    1
    37    27    34    1
    38    32    36   ar
    39    32    37   ar
    40    36    38   ar
    41    37    39   ar
    42    38    40   ar
    43    38    42    1
    44    39    40   ar
    45    41    43    1
    46     8    44    1
    47    10    45    1
    48    10    46    1
    49    11    47    1
    50    11    48    1
    51    13    49    1
    52    16    50    1
    53    16    51    1
    54    17    52    1
    55    17    53    1
    56    19    54    1
    57    20    55    1
    58    21    56    1
    59    21    57    1
    60    22    58    1
    61    22    59    1
    62    24    60    1
    63    24    61    1
    64    25    62    1
    65    26    63    1
    66    27    64    1
    67    28    65    1
    68    28    66    1
    69    28    67    1
    70    29    68    1
    71    29    69    1
    72    29    70    1
    73    30    71    1
    74    30    72    1
    75    30    73    1
    76    31    74    1
    77    31    75    1
    78    31    76    1
    79    33    77    1
    80    33    78    1
    81    33    79    1
    82    34    80    1
    83    34    81    1
    84    34    82    1
    85    36    83    1
    86    37    84    1
    87    39    85    1
    88    40    86    1
    89    41    87    1
    90    41    88    1
    91    43    89    1
    92    43    90    1
    93    43    91    1
