#REMARK Cluster  17 of Poses:  1 Score: -6.33 kcal/mol
@<TRIPOS>MOLECULE
9831652
 85 89 0 0 0
SMALL
GASTEIGER

@<TRIPOS>ATOM
      1 CL1         6.6950    2.4030    8.9210 Cl        1    UNL1    -0.0811
      2 CL2         5.2980   -2.5270   10.7260 Cl        1    UNL1    -0.0831
      3 S3          6.0640    3.6090   11.8340 S.O2      1    UNL1     0.0629
      4 O4          5.6610    4.3600   10.6600 O.2       1    UNL1    -0.1528
      5 O5          5.4330    3.8540   13.1170 O.2       1    UNL1    -0.1528
      6 O6          9.8960    3.4910   14.4350 O.2       1    UNL1    -0.2740
      7 O7          5.9790   -1.9580    8.6130 O.3       1    UNL1    -0.4851
      8 O8          4.2940    3.6550   19.2600 O.2       1    UNL1    -0.2702
      9 N9          7.7540    3.6940   12.0100 N.3       1    UNL1    -0.1647
     10 N10         7.6140    3.3780   14.8850 N.am      1    UNL1    -0.3139
     11 N11         4.7480    4.2970   17.0780 N.am      1    UNL1    -0.3113
     12 N12         6.7720   -4.5850    8.3690 N.ar      1    UNL1    -0.2482
     13 N13        -0.9970    0.3480   15.4150 N.pl3     1    UNL1    -0.2497
     14 N14         0.1790   -1.3710   16.4730 N.2       1    UNL1    -0.2884
     15 C15         8.4330    2.6120   12.7750 C.3       1    UNL1     0.1078
     16 C16         9.6880    2.2680   11.9800 C.3       1    UNL1    -0.0260
     17 C17         9.9550    3.5160   11.1560 C.3       1    UNL1    -0.0366
     18 C18         8.5560    3.9810   10.7890 C.3       1    UNL1     0.0214
     19 C19         8.7460    3.2110   14.1050 C.2       1    UNL1     0.2319
     20 C20         5.8680    1.8920   11.4610 C.ar      1    UNL1     0.1242
     21 C21         7.6500    3.9180   16.2240 C.3       1    UNL1     0.0131
     22 C22         6.1400    1.3680   10.1970 C.ar      1    UNL1     0.0750
     23 C23         5.4240    1.0540   12.4830 C.ar      1    UNL1    -0.0325
     24 C24         6.9030    5.2450   16.3420 C.3       1    UNL1    -0.0217
     25 C25         5.9680    0.0050    9.9560 C.ar      1    UNL1     0.0281
     26 C26         5.2520   -0.3090   12.2420 C.ar      1    UNL1    -0.0411
     27 C27         5.5240   -0.8340   10.9780 C.ar      1    UNL1     0.0489
     28 C28         5.7910    5.2360   17.3890 C.3       1    UNL1     0.0133
     29 C29         6.2580   -0.5660    8.6000 C.3       1    UNL1     0.1175
     30 C30         5.9290   -2.5910    7.3980 C.ar      1    UNL1     0.1468
     31 C31         4.0740    3.5730   18.0540 C.2       1    UNL1     0.2441
     32 C32         6.3320   -3.9190    7.2850 C.ar      1    UNL1     0.1130
     33 C33         6.2640   -4.5280    6.0140 C.ar      1    UNL1     0.0069
     34 C34         5.4680   -1.8700    6.2940 C.ar      1    UNL1    -0.0178
     35 C35         3.0400    2.6230   17.5680 C.ar      1    UNL1     0.0367
     36 C36         6.6700   -5.8650    5.9000 C.ar      1    UNL1    -0.0395
     37 C37         5.7990   -3.8020    4.9040 C.ar      1    UNL1    -0.0521
     38 C38         5.4030   -2.4760    5.0450 C.ar      1    UNL1    -0.0576
     39 C39         7.1550   -5.8740    8.2160 C.ar      1    UNL1     0.0393
     40 C40         7.1240   -6.5530    7.0160 C.ar      1    UNL1    -0.0371
     41 C41         6.6340   -6.6000    4.5980 C.3       1    UNL1    -0.0390
     42 C42         2.7980    2.4960   16.2000 C.ar      1    UNL1    -0.0488
     43 C43         2.3100    1.8600   18.4790 C.ar      1    UNL1    -0.0488
     44 C44         7.6360   -6.5750    9.4430 C.3       1    UNL1    -0.0223
     45 C45         1.8270    1.6050   15.7430 C.ar      1    UNL1    -0.0463
     46 C46         1.3390    0.9700   18.0220 C.ar      1    UNL1    -0.0463
     47 C47         1.0970    0.8420   16.6550 C.ar      1    UNL1     0.0608
     48 C48         0.0850   -0.0870   16.1790 C.2       1    UNL1     0.2662
     49 H1          6.7430    3.1150   14.5080 H         1    UNL1     0.1487
     50 H2          4.5000    4.1620   16.1340 H         1    UNL1     0.1490
     51 H3         -1.2880   -0.1730   14.6320 H         1    UNL1     0.2883
     52 H4         -1.4690    1.1770   15.6580 H         1    UNL1     0.2883
     53 H5         -0.5060   -2.0020   16.1520 H         1    UNL1     0.3009
     54 H6          0.9340   -1.6980   17.0140 H         1    UNL1     0.3009
     55 H7          7.8620    1.7180   12.9170 H         1    UNL1     0.0575
     56 H8          9.5170    1.4230   11.3460 H         1    UNL1     0.0286
     57 H9         10.5130    2.0040   12.6080 H         1    UNL1     0.0286
     58 H10        10.5270    3.2860   10.2820 H         1    UNL1     0.0279
     59 H11        10.5240    4.2560   11.6790 H         1    UNL1     0.0279
     60 H12         8.5480    5.0270   10.5650 H         1    UNL1     0.0444
     61 H13         8.1730    3.4900    9.9190 H         1    UNL1     0.0444
     62 H14         8.6710    4.0730   16.5040 H         1    UNL1     0.0462
     63 H15         7.1670    3.2150   16.8710 H         1    UNL1     0.0462
     64 H16         5.2230    1.4420   13.4180 H         1    UNL1     0.0638
     65 H17         6.4690    5.4730   15.3910 H         1    UNL1     0.0295
     66 H18         7.6170    5.9780   16.6520 H         1    UNL1     0.0295
     67 H19         4.9230   -0.9300   12.9990 H         1    UNL1     0.0633
     68 H20         6.2150    4.9760   18.3360 H         1    UNL1     0.0462
     69 H21         5.3540    6.2120   17.4060 H         1    UNL1     0.0462
     70 H22         5.6440   -0.0840    7.8690 H         1    UNL1     0.0749
     71 H23         7.2880   -0.4080    8.3560 H         1    UNL1     0.0749
     72 H24         5.1750   -0.8870    6.4060 H         1    UNL1     0.0655
     73 H25         5.7520   -4.2560    3.9780 H         1    UNL1     0.0624
     74 H26         5.0620   -1.9460    4.2280 H         1    UNL1     0.0619
     75 H27         7.4260   -7.5380    6.9500 H         1    UNL1     0.0638
     76 H28         6.2660   -5.9510    3.8310 H         1    UNL1     0.0278
     77 H29         5.9900   -7.4500    4.6850 H         1    UNL1     0.0278
     78 H30         7.6220   -6.9250    4.3450 H         1    UNL1     0.0278
     79 H31         3.3380    3.0610   15.5260 H         1    UNL1     0.0625
     80 H32         2.4890    1.9550   19.4910 H         1    UNL1     0.0625
     81 H33         7.5950   -5.9050   10.2760 H         1    UNL1     0.0292
     82 H34         8.6450   -6.8990    9.2960 H         1    UNL1     0.0292
     83 H35         7.0140   -7.4230    9.6360 H         1    UNL1     0.0292
     84 H36         1.6480    1.5110   14.7310 H         1    UNL1     0.0626
     85 H37         0.7990    0.4050   18.6970 H         1    UNL1     0.0626
@<TRIPOS>UNITY_ATOM_ATTR
14 1
charge 1
@<TRIPOS>BOND
     1     1    22    1
     2     2    27    1
     3     3     4    2
     4     3     5    2
     5     3     9    1
     6     3    20    1
     7     6    19    2
     8     7    29    1
     9     7    30    1
    10     8    31    2
    11     9    15    1
    12     9    18    1
    13    10    19   am
    14    10    21    1
    15    11    28    1
    16    11    31   am
    17    12    32   ar
    18    12    39   ar
    19    13    48    1
    20    14    48    2
    21    15    16    1
    22    15    19    1
    23    16    17    1
    24    17    18    1
    25    20    22   ar
    26    20    23   ar
    27    21    24    1
    28    22    25   ar
    29    23    26   ar
    30    24    28    1
    31    25    27   ar
    32    25    29    1
    33    26    27   ar
    34    30    32   ar
    35    30    34   ar
    36    31    35    1
    37    32    33   ar
    38    33    36   ar
    39    33    37   ar
    40    34    38   ar
    41    35    42   ar
    42    35    43   ar
    43    36    40   ar
    44    36    41    1
    45    37    38   ar
    46    39    40   ar
    47    39    44    1
    48    42    45   ar
    49    43    46   ar
    50    45    47   ar
    51    46    47   ar
    52    47    48    1
    53    10    49    1
    54    11    50    1
    55    13    51    1
    56    13    52    1
    57    14    53    1
    58    14    54    1
    59    15    55    1
    60    16    56    1
    61    16    57    1
    62    17    58    1
    63    17    59    1
    64    18    60    1
    65    18    61    1
    66    21    62    1
    67    21    63    1
    68    23    64    1
    69    24    65    1
    70    24    66    1
    71    26    67    1
    72    28    68    1
    73    28    69    1
    74    29    70    1
    75    29    71    1
    76    34    72    1
    77    37    73    1
    78    38    74    1
    79    40    75    1
    80    41    76    1
    81    41    77    1
    82    41    78    1
    83    42    79    1
    84    43    80    1
    85    44    81    1
    86    44    82    1
    87    44    83    1
    88    45    84    1
    89    46    85    1
