#REMARK Cluster  16 of Poses:  1 Score: -6.10 kcal/mol
@<TRIPOS>MOLECULE
9895193
 91 93 0 0 0
SMALL
GASTEIGER

@<TRIPOS>ATOM
      1 S1          7.8940    0.0120   10.0270 S.O2      1    UNL1     0.0596
      2 O2          7.9150    0.8780    8.8640 O.2       1    UNL1    -0.1530
      3 O3          9.1350   -0.3870   10.6620 O.2       1    UNL1    -0.1530
      4 O4          4.3330   -2.5940    7.7670 O.2       1    UNL1    -0.2738
      5 O5          6.1040   -7.4520   12.2540 O.3       1    UNL1    -0.4505
      6 O6          7.1340   -5.8750   13.5490 O.2       1    UNL1    -0.2263
      7 N7          5.3810   -3.3580    9.6940 N.am      1    UNL1    -0.2972
      8 N8          6.9780   -1.3800    9.6760 N.3       1    UNL1    -0.1777
      9 N9          6.4620   -5.3490   11.3880 N.am      1    UNL1    -0.2644
     10 N10         4.0290   -5.0500    4.0830 N.pl3     1    UNL1    -0.2497
     11 N11         5.9660   -6.0360    3.2240 N.2       1    UNL1    -0.2884
     12 C12         6.9060    0.7900   11.2690 C.ar      1    UNL1     0.1121
     13 C13         6.3870   -1.5570    8.3370 C.3       1    UNL1     0.1089
     14 C14         5.8890    1.6700   10.9010 C.ar      1    UNL1    -0.0179
     15 C15         7.1450    0.5250   12.6180 C.ar      1    UNL1    -0.0179
     16 C16         4.8030   -4.7040    9.6850 C.3       1    UNL1     0.0307
     17 C17         5.9930   -2.9660   10.9710 C.3       1    UNL1     0.0307
     18 C18         5.2710   -2.5450    8.5670 C.2       1    UNL1     0.2346
     19 C19         5.6020    1.9760    9.4670 C.3       1    UNL1    -0.0196
     20 C20         8.2280   -0.4100   13.0500 C.3       1    UNL1    -0.0196
     21 C21         5.8340   -5.7420   10.1210 C.3       1    UNL1     0.0336
     22 C22         7.0270   -3.9990   11.4120 C.3       1    UNL1     0.0336
     23 C23         5.3500    2.0200   13.2300 C.ar      1    UNL1    -0.0441
     24 C24         7.4050   -2.1250    7.3610 C.3       1    UNL1    -0.0021
     25 C25         5.1100    2.2850   11.8820 C.ar      1    UNL1    -0.0530
     26 C26         6.3670    1.1400   13.5980 C.ar      1    UNL1    -0.0530
     27 C27         4.5180    2.6790   14.2790 C.3       1    UNL1    -0.0215
     28 C28         4.2540    2.6960    9.2800 C.3       1    UNL1    -0.0586
     29 C29         6.7280    2.7910    8.8050 C.3       1    UNL1    -0.0586
     30 C30         9.3840    0.3190   13.7580 C.3       1    UNL1    -0.0586
     31 C31         7.6980   -1.5460   13.9430 C.3       1    UNL1    -0.0586
     32 C32         7.0940   -3.5510    6.9760 C.ar      1    UNL1    -0.0446
     33 C33         3.0910    2.1040   14.3460 C.3       1    UNL1    -0.0586
     34 C34         4.4570    4.2090   14.1080 C.3       1    UNL1    -0.0586
     35 C35         6.6090   -6.2000   12.4860 C.2       1    UNL1     0.4029
     36 C36         6.3890   -3.8190    5.8030 C.ar      1    UNL1    -0.0438
     37 C37         7.5120   -4.6000    7.7940 C.ar      1    UNL1    -0.0585
     38 C38         6.1020   -5.1370    5.4480 C.ar      1    UNL1     0.0611
     39 C39         7.2260   -5.9180    7.4380 C.ar      1    UNL1    -0.0607
     40 C40         6.5200   -6.1870    6.2650 C.ar      1    UNL1    -0.0470
     41 C41         4.7680   -7.6890   12.7150 C.3       1    UNL1     0.0913
     42 C42         5.3660   -5.4170    4.2250 C.2       1    UNL1     0.2662
     43 C43         3.8910   -8.0320   11.5300 C.3       1    UNL1    -0.0305
     44 H1          6.2060   -1.4000   10.3430 H         1    UNL1     0.1489
     45 H2          3.7980   -4.1560    3.7420 H         1    UNL1     0.2883
     46 H3          3.3160   -5.6850    4.3220 H         1    UNL1     0.2883
     47 H4          5.4700   -6.2270    2.3950 H         1    UNL1     0.3009
     48 H5          6.9090   -6.3070    3.3060 H         1    UNL1     0.3009
     49 H6          6.0500   -0.6340    7.9120 H         1    UNL1     0.0576
     50 H7          4.4690   -4.9350    8.6950 H         1    UNL1     0.0480
     51 H8          3.9820   -4.7280   10.3710 H         1    UNL1     0.0480
     52 H9          5.2300   -2.8920   11.7180 H         1    UNL1     0.0480
     53 H10         6.4810   -2.0220   10.8450 H         1    UNL1     0.0480
     54 H11         5.5440    1.0270    8.9780 H         1    UNL1     0.0344
     55 H12         8.6080   -0.8430   12.1490 H         1    UNL1     0.0344
     56 H13         5.3490   -6.6870   10.2470 H         1    UNL1     0.0481
     57 H14         6.5920   -5.8100    9.3680 H         1    UNL1     0.0481
     58 H15         7.8660   -3.9590   10.7490 H         1    UNL1     0.0481
     59 H16         7.3290   -3.7740   12.4130 H         1    UNL1     0.0481
     60 H17         8.3730   -2.0950    7.8170 H         1    UNL1     0.0334
     61 H18         7.3750   -1.5310    6.4720 H         1    UNL1     0.0334
     62 H19         4.3570    2.9370   11.6100 H         1    UNL1     0.0624
     63 H20         6.5440    0.9440   14.5960 H         1    UNL1     0.0624
     64 H21         5.0090    2.4650   15.2050 H         1    UNL1     0.0343
     65 H22         4.2880    3.6500    9.7630 H         1    UNL1     0.0235
     66 H23         3.4720    2.1060    9.7110 H         1    UNL1     0.0235
     67 H24         4.0640    2.8310    8.2360 H         1    UNL1     0.0235
     68 H25         6.8030    3.7470    9.2810 H         1    UNL1     0.0235
     69 H26         6.5080    2.9250    7.7670 H         1    UNL1     0.0235
     70 H27         7.6550    2.2680    8.9090 H         1    UNL1     0.0235
     71 H28         9.0260    0.7610   14.6640 H         1    UNL1     0.0235
     72 H29         9.7700    1.0840   13.1160 H         1    UNL1     0.0235
     73 H30        10.1610   -0.3810   13.9860 H         1    UNL1     0.0235
     74 H31         7.3120   -1.1340   14.8530 H         1    UNL1     0.0235
     75 H32         8.4950   -2.2230   14.1690 H         1    UNL1     0.0235
     76 H33         6.9190   -2.0700   13.4300 H         1    UNL1     0.0235
     77 H34         2.5810    2.3070   13.4270 H         1    UNL1     0.0235
     78 H35         2.5600    2.5580   15.1560 H         1    UNL1     0.0235
     79 H36         3.1390    1.0460   14.5000 H         1    UNL1     0.0235
     80 H37         3.9690    4.4450   13.1850 H         1    UNL1     0.0235
     81 H38         5.4500    4.6060   14.0970 H         1    UNL1     0.0235
     82 H39         3.9100    4.6370   14.9210 H         1    UNL1     0.0235
     83 H40         6.0790   -3.0420    5.1980 H         1    UNL1     0.0629
     84 H41         8.0340   -4.4020    8.6620 H         1    UNL1     0.0620
     85 H42         7.5350   -6.6950    8.0430 H         1    UNL1     0.0618
     86 H43         6.3080   -7.1620    6.0020 H         1    UNL1     0.0626
     87 H44         4.3940   -6.8100   13.1960 H         1    UNL1     0.0695
     88 H45         4.7660   -8.5000   13.4130 H         1    UNL1     0.0695
     89 H46         3.8970   -7.2190   10.8350 H         1    UNL1     0.0262
     90 H47         2.8910   -8.2070   11.8660 H         1    UNL1     0.0262
     91 H48         4.2660   -8.9130   11.0520 H         1    UNL1     0.0262
@<TRIPOS>UNITY_ATOM_ATTR
11 1
charge 1
@<TRIPOS>BOND
     1     1     2    2
     2     1     3    2
     3     1     8    1
     4     1    12    1
     5     4    18    2
     6     5    35    1
     7     5    41    1
     8     6    35    2
     9     7    16    1
    10     7    17    1
    11     7    18   am
    12     8    13    1
    13     9    21    1
    14     9    22    1
    15     9    35   am
    16    10    42    1
    17    11    42    2
    18    12    14   ar
    19    12    15   ar
    20    13    18    1
    21    13    24    1
    22    14    19    1
    23    14    25   ar
    24    15    20    1
    25    15    26   ar
    26    16    21    1
    27    17    22    1
    28    19    28    1
    29    19    29    1
    30    20    30    1
    31    20    31    1
    32    23    25   ar
    33    23    26   ar
    34    23    27    1
    35    24    32    1
    36    27    33    1
    37    27    34    1
    38    32    36   ar
    39    32    37   ar
    40    36    38   ar
    41    37    39   ar
    42    38    40   ar
    43    38    42    1
    44    39    40   ar
    45    41    43    1
    46     8    44    1
    47    10    45    1
    48    10    46    1
    49    11    47    1
    50    11    48    1
    51    13    49    1
    52    16    50    1
    53    16    51    1
    54    17    52    1
    55    17    53    1
    56    19    54    1
    57    20    55    1
    58    21    56    1
    59    21    57    1
    60    22    58    1
    61    22    59    1
    62    24    60    1
    63    24    61    1
    64    25    62    1
    65    26    63    1
    66    27    64    1
    67    28    65    1
    68    28    66    1
    69    28    67    1
    70    29    68    1
    71    29    69    1
    72    29    70    1
    73    30    71    1
    74    30    72    1
    75    30    73    1
    76    31    74    1
    77    31    75    1
    78    31    76    1
    79    33    77    1
    80    33    78    1
    81    33    79    1
    82    34    80    1
    83    34    81    1
    84    34    82    1
    85    36    83    1
    86    37    84    1
    87    39    85    1
    88    40    86    1
    89    41    87    1
    90    41    88    1
    91    43    89    1
    92    43    90    1
    93    43    91    1
