#REMARK Cluster   7 of Poses:  1 Score: -7.64 kcal/mol
@<TRIPOS>MOLECULE
9895193
 91 93 0 0 0
SMALL
GASTEIGER

@<TRIPOS>ATOM
      1 S1          5.9410   -1.1270   11.0880 S.O2      1    UNL1     0.0596
      2 O2          5.7090   -1.4670   12.4790 O.2       1    UNL1    -0.1530
      3 O3          4.9440   -0.3830   10.3430 O.2       1    UNL1    -0.1530
      4 O4          3.2760   -3.1000   10.6260 O.2       1    UNL1    -0.2738
      5 O5          4.5680   -9.5270   12.6000 O.3       1    UNL1    -0.4505
      6 O6          6.8070   -9.0670   12.6170 O.2       1    UNL1    -0.2263
      7 N7          4.6900   -4.8550   11.1860 N.am      1    UNL1    -0.2972
      8 N8          6.3450   -2.5370   10.2240 N.3       1    UNL1    -0.1777
      9 N9          5.3200   -7.5760   11.6350 N.am      1    UNL1    -0.2644
     10 N10         5.3940   -6.3470    2.8730 N.pl3     1    UNL1    -0.2497
     11 N11         6.9430   -7.2540    4.3700 N.2       1    UNL1    -0.2884
     12 C12         7.4460   -0.2040   10.9970 C.ar      1    UNL1     0.1121
     13 C13         5.3180   -3.2360    9.4310 C.3       1    UNL1     0.1089
     14 C14         8.6100   -0.7090   11.5780 C.ar      1    UNL1    -0.0179
     15 C15         7.4710    1.0290   10.3450 C.ar      1    UNL1    -0.0179
     16 C16         3.6530   -5.7620   11.6840 C.3       1    UNL1     0.0307
     17 C17         6.0600   -5.2260   11.5680 C.3       1    UNL1     0.0307
     18 C18         4.3330   -3.7170   10.4660 C.2       1    UNL1     0.2346
     19 C19         8.6230   -2.0260   12.2830 C.3       1    UNL1    -0.0196
     20 C20         6.2440    1.6020    9.7130 C.3       1    UNL1    -0.0196
     21 C21         3.9480   -7.2020   11.2720 C.3       1    UNL1     0.0336
     22 C22         6.3610   -6.6650   11.1570 C.3       1    UNL1     0.0336
     23 C23         9.8210    1.2530   10.8550 C.ar      1    UNL1    -0.0441
     24 C24         5.9170   -4.4160    8.6810 C.3       1    UNL1    -0.0021
     25 C25         9.7970    0.0200   11.5070 C.ar      1    UNL1    -0.0530
     26 C26         8.6580    1.7570   10.2740 C.ar      1    UNL1    -0.0530
     27 C27        11.0910    2.0320   10.7800 C.3       1    UNL1    -0.0215
     28 C28         9.5850   -3.0330   11.6250 C.3       1    UNL1    -0.0586
     29 C29         8.9520   -1.8870   13.7800 C.3       1    UNL1    -0.0586
     30 C30         5.7720    2.8900   10.4120 C.3       1    UNL1    -0.0586
     31 C31         6.4270    1.8590    8.2070 C.3       1    UNL1    -0.0586
     32 C32         5.8930   -4.2150    7.1860 C.ar      1    UNL1    -0.0446
     33 C33        11.0770    3.2690   11.6980 C.3       1    UNL1    -0.0586
     34 C34        11.4380    2.4540    9.3400 C.3       1    UNL1    -0.0586
     35 C35         5.6590   -8.7510   12.3110 C.2       1    UNL1     0.4029
     36 C36         6.0170   -5.3110    6.3320 C.ar      1    UNL1    -0.0438
     37 C37         5.7460   -2.9320    6.6570 C.ar      1    UNL1    -0.0585
     38 C38         5.9940   -5.1240    4.9500 C.ar      1    UNL1     0.0611
     39 C39         5.7230   -2.7460    5.2750 C.ar      1    UNL1    -0.0607
     40 C40         5.8470   -3.8420    4.4210 C.ar      1    UNL1    -0.0470
     41 C41         4.0840  -10.3570   11.5380 C.3       1    UNL1     0.0913
     42 C42         6.1240   -6.2660    4.0580 C.2       1    UNL1     0.2662
     43 C43         2.8260  -11.0630   11.9970 C.3       1    UNL1    -0.0305
     44 H1          6.6970   -3.2080   10.9060 H         1    UNL1     0.1489
     45 H2          5.8610   -6.4830    2.0170 H         1    UNL1     0.2883
     46 H3          4.4130   -6.2700    2.8930 H         1    UNL1     0.2883
     47 H4          7.0320   -8.0280    3.7680 H         1    UNL1     0.3009
     48 H5          7.4640   -7.2170    5.2040 H         1    UNL1     0.3009
     49 H6          4.8750   -2.6070    8.6870 H         1    UNL1     0.0576
     50 H7          2.7070   -5.4690   11.2800 H         1    UNL1     0.0480
     51 H8          3.6360   -5.7090   12.7520 H         1    UNL1     0.0480
     52 H9          6.1660   -5.1340   12.6290 H         1    UNL1     0.0480
     53 H10         6.7460   -4.5740   11.0690 H         1    UNL1     0.0480
     54 H11         7.6280   -2.4080   12.1940 H         1    UNL1     0.0344
     55 H12         5.4850    0.8580    9.8360 H         1    UNL1     0.0344
     56 H13         3.2620   -7.8570   11.7690 H         1    UNL1     0.0481
     57 H14         3.8380   -7.2860   10.2110 H         1    UNL1     0.0481
     58 H15         6.4120   -6.7210   10.0900 H         1    UNL1     0.0481
     59 H16         7.2940   -6.9560   11.5920 H         1    UNL1     0.0481
     60 H17         5.3570   -5.2960    8.9190 H         1    UNL1     0.0334
     61 H18         6.9400   -4.5120    8.9830 H         1    UNL1     0.0334
     62 H19        10.6580   -0.3530   11.9370 H         1    UNL1     0.0624
     63 H20         8.6760    2.6690    9.7920 H         1    UNL1     0.0624
     64 H21        11.8530    1.3660   11.1270 H         1    UNL1     0.0343
     65 H22        10.5880   -2.6700   11.7030 H         1    UNL1     0.0235
     66 H23         9.3270   -3.1510   10.5940 H         1    UNL1     0.0235
     67 H24         9.5070   -3.9770   12.1230 H         1    UNL1     0.0235
     68 H25         9.9450   -1.5060   13.8930 H         1    UNL1     0.0235
     69 H26         8.8820   -2.8450   14.2510 H         1    UNL1     0.0235
     70 H27         8.2570   -1.2140   14.2370 H         1    UNL1     0.0235
     71 H28         6.5170    3.6490   10.3020 H         1    UNL1     0.0235
     72 H29         5.6130    2.6940   11.4520 H         1    UNL1     0.0235
     73 H30         4.8570    3.2220    9.9670 H         1    UNL1     0.0235
     74 H31         7.1830    2.6010    8.0600 H         1    UNL1     0.0235
     75 H32         5.5040    2.2030    7.7890 H         1    UNL1     0.0235
     76 H33         6.7200    0.9500    7.7230 H         1    UNL1     0.0235
     77 H34        10.3200    3.9500   11.3680 H         1    UNL1     0.0235
     78 H35        12.0310    3.7520   11.6610 H         1    UNL1     0.0235
     79 H36        10.8700    2.9660   12.7030 H         1    UNL1     0.0235
     80 H37        10.6870    3.1220    8.9730 H         1    UNL1     0.0235
     81 H38        11.4810    1.5870    8.7150 H         1    UNL1     0.0235
     82 H39        12.3880    2.9470    9.3320 H         1    UNL1     0.0235
     83 H40         6.1260   -6.2600    6.7230 H         1    UNL1     0.0629
     84 H41         5.6550   -2.1220    7.2890 H         1    UNL1     0.0620
     85 H42         5.6140   -1.7970    4.8840 H         1    UNL1     0.0618
     86 H43         5.8300   -3.7030    3.3990 H         1    UNL1     0.0626
     87 H44         4.8280  -11.0810   11.2810 H         1    UNL1     0.0695
     88 H45         3.8680   -9.7560   10.6790 H         1    UNL1     0.0695
     89 H46         3.0470  -11.6620   12.8560 H         1    UNL1     0.0262
     90 H47         2.4600  -11.6880   11.2100 H         1    UNL1     0.0262
     91 H48         2.0820  -10.3370   12.2510 H         1    UNL1     0.0262
@<TRIPOS>UNITY_ATOM_ATTR
11 1
charge 1
@<TRIPOS>BOND
     1     1     2    2
     2     1     3    2
     3     1     8    1
     4     1    12    1
     5     4    18    2
     6     5    35    1
     7     5    41    1
     8     6    35    2
     9     7    16    1
    10     7    17    1
    11     7    18   am
    12     8    13    1
    13     9    21    1
    14     9    22    1
    15     9    35   am
    16    10    42    1
    17    11    42    2
    18    12    14   ar
    19    12    15   ar
    20    13    18    1
    21    13    24    1
    22    14    19    1
    23    14    25   ar
    24    15    20    1
    25    15    26   ar
    26    16    21    1
    27    17    22    1
    28    19    28    1
    29    19    29    1
    30    20    30    1
    31    20    31    1
    32    23    25   ar
    33    23    26   ar
    34    23    27    1
    35    24    32    1
    36    27    33    1
    37    27    34    1
    38    32    36   ar
    39    32    37   ar
    40    36    38   ar
    41    37    39   ar
    42    38    40   ar
    43    38    42    1
    44    39    40   ar
    45    41    43    1
    46     8    44    1
    47    10    45    1
    48    10    46    1
    49    11    47    1
    50    11    48    1
    51    13    49    1
    52    16    50    1
    53    16    51    1
    54    17    52    1
    55    17    53    1
    56    19    54    1
    57    20    55    1
    58    21    56    1
    59    21    57    1
    60    22    58    1
    61    22    59    1
    62    24    60    1
    63    24    61    1
    64    25    62    1
    65    26    63    1
    66    27    64    1
    67    28    65    1
    68    28    66    1
    69    28    67    1
    70    29    68    1
    71    29    69    1
    72    29    70    1
    73    30    71    1
    74    30    72    1
    75    30    73    1
    76    31    74    1
    77    31    75    1
    78    31    76    1
    79    33    77    1
    80    33    78    1
    81    33    79    1
    82    34    80    1
    83    34    81    1
    84    34    82    1
    85    36    83    1
    86    37    84    1
    87    39    85    1
    88    40    86    1
    89    41    87    1
    90    41    88    1
    91    43    89    1
    92    43    90    1
    93    43    91    1
