#REMARK Cluster  12 of Poses:  1 Score: -7.07 kcal/mol
@<TRIPOS>MOLECULE
9831652
 85 89 0 0 0
SMALL
GASTEIGER

@<TRIPOS>ATOM
      1 CL1         8.2440   -3.3530    8.3030 Cl        1    UNL1    -0.0811
      2 CL2         6.9090   -8.2700    6.4170 Cl        1    UNL1    -0.0831
      3 S3          6.1950   -2.0320    6.2070 S.O2      1    UNL1     0.0629
      4 O4          7.4990   -1.4180    6.0360 O.2       1    UNL1    -0.1528
      5 O5          5.1380   -1.7940    5.2420 O.2       1    UNL1    -0.1528
      6 O6          7.1690    0.2710    8.5650 O.2       1    UNL1    -0.2740
      7 O7          7.7610   -6.6060    9.4620 O.3       1    UNL1    -0.4851
      8 O8         10.6430    4.8120    9.7910 O.2       1    UNL1    -0.2702
      9 N9          5.6140   -1.7050    7.7720 N.3       1    UNL1    -0.1647
     10 N10         5.3780    1.3340    9.6050 N.am      1    UNL1    -0.3139
     11 N11         9.0190    3.1810   10.0810 N.am      1    UNL1    -0.3113
     12 N12         6.6010   -8.4460   11.1530 N.ar      1    UNL1    -0.2482
     13 N13        14.5090   -1.0790    8.0440 N.pl3     1    UNL1    -0.2497
     14 N14        15.0830   -0.7560   10.2860 N.2       1    UNL1    -0.2884
     15 C15         4.9510   -0.3940    8.0120 C.3       1    UNL1     0.1078
     16 C16         3.7270   -0.7000    8.8680 C.3       1    UNL1    -0.0260
     17 C17         4.0650   -2.0230    9.5340 C.3       1    UNL1    -0.0366
     18 C18         4.8120   -2.7670    8.4390 C.3       1    UNL1     0.0214
     19 C19         5.9630    0.4280    8.7370 C.2       1    UNL1     0.2319
     20 C20         6.4400   -3.7790    6.3140 C.ar      1    UNL1     0.1242
     21 C21         6.1400    2.2330   10.4410 C.3       1    UNL1     0.0131
     22 C22         7.3290   -4.3540    7.2220 C.ar      1    UNL1     0.0750
     23 C23         5.7050   -4.5900    5.4490 C.ar      1    UNL1    -0.0325
     24 C24         6.6020    3.4810    9.6930 C.3       1    UNL1    -0.0217
     25 C25         7.4840   -5.7390    7.2640 C.ar      1    UNL1     0.0281
     26 C26         5.8610   -5.9750    5.4910 C.ar      1    UNL1    -0.0411
     27 C27         6.7500   -6.5500    6.3990 C.ar      1    UNL1     0.0489
     28 C28         7.9030    4.0750   10.2280 C.3       1    UNL1     0.0133
     29 C29         8.4380   -6.3640    8.2380 C.3       1    UNL1     0.1175
     30 C30         8.4900   -7.1830   10.4700 C.ar      1    UNL1     0.1468
     31 C31        10.3180    3.6300    9.8710 C.2       1    UNL1     0.2441
     32 C32         7.8940   -8.1110   11.3190 C.ar      1    UNL1     0.1130
     33 C33         8.6840   -8.6770   12.3420 C.ar      1    UNL1     0.0069
     34 C34         9.8290   -6.8120   10.6140 C.ar      1    UNL1    -0.0178
     35 C35        11.3560    2.5790    9.7120 C.ar      1    UNL1     0.0367
     36 C36         8.0850   -9.6120   13.1970 C.ar      1    UNL1    -0.0395
     37 C37        10.0310   -8.3050   12.4870 C.ar      1    UNL1    -0.0521
     38 C38        10.6010   -7.3740   11.6230 C.ar      1    UNL1    -0.0576
     39 C39         6.0610   -9.3520   12.0000 C.ar      1    UNL1     0.0393
     40 C40         6.7520   -9.9590   13.0280 C.ar      1    UNL1    -0.0371
     41 C41         8.8370  -10.2700   14.3110 C.3       1    UNL1    -0.0390
     42 C42        12.0550    2.4650    8.5110 C.ar      1    UNL1    -0.0488
     43 C43        11.6310    1.7060   10.7650 C.ar      1    UNL1    -0.0488
     44 C44         4.6250   -9.6940   11.7810 C.3       1    UNL1    -0.0223
     45 C45        13.0300    1.4780    8.3620 C.ar      1    UNL1    -0.0463
     46 C46        12.6050    0.7190   10.6160 C.ar      1    UNL1    -0.0463
     47 C47        13.3040    0.6050    9.4140 C.ar      1    UNL1     0.0608
     48 C48        14.3200   -0.4240    9.2590 C.2       1    UNL1     0.2662
     49 H1          4.3950    1.3680    9.6540 H         1    UNL1     0.1487
     50 H2          8.8570    2.2110   10.1300 H         1    UNL1     0.1490
     51 H3         15.2300   -0.7930    7.4370 H         1    UNL1     0.2883
     52 H4         13.9220   -1.8280    7.7920 H         1    UNL1     0.2883
     53 H5         15.7710   -1.4520   10.1830 H         1    UNL1     0.3009
     54 H6         14.9640   -0.3070   11.1540 H         1    UNL1     0.3009
     55 H7          4.6330    0.1300    7.1350 H         1    UNL1     0.0575
     56 H8          2.8510   -0.7930    8.2600 H         1    UNL1     0.0286
     57 H9          3.5150    0.0750    9.5750 H         1    UNL1     0.0286
     58 H10         3.1780   -2.5490    9.8210 H         1    UNL1     0.0279
     59 H11         4.6310   -1.9130   10.4350 H         1    UNL1     0.0279
     60 H12         5.4480   -3.5200    8.8560 H         1    UNL1     0.0444
     61 H13         4.1570   -3.2760    7.7640 H         1    UNL1     0.0444
     62 H14         7.0010    1.7130   10.8070 H         1    UNL1     0.0462
     63 H15         5.5030    2.5510   11.2400 H         1    UNL1     0.0462
     64 H16         5.0470   -4.1650    4.7770 H         1    UNL1     0.0638
     65 H17         5.8350    4.2240    9.7700 H         1    UNL1     0.0295
     66 H18         6.7870    3.1870    8.6810 H         1    UNL1     0.0295
     67 H19         5.3170   -6.5750    4.8510 H         1    UNL1     0.0633
     68 H20         8.1140    4.9770    9.6930 H         1    UNL1     0.0462
     69 H21         7.7700    4.2580   11.2740 H         1    UNL1     0.0462
     70 H22         8.8010   -7.2890    7.8400 H         1    UNL1     0.0749
     71 H23         9.2640   -5.7050    8.4070 H         1    UNL1     0.0749
     72 H24        10.2450   -6.1210    9.9700 H         1    UNL1     0.0655
     73 H25        10.6020   -8.7240   13.2370 H         1    UNL1     0.0624
     74 H26        11.5910   -7.1020   11.7320 H         1    UNL1     0.0619
     75 H27         6.2950  -10.6450   13.6490 H         1    UNL1     0.0638
     76 H28         9.8450   -9.9100   14.3230 H         1    UNL1     0.0278
     77 H29         8.8380  -11.3290   14.1650 H         1    UNL1     0.0278
     78 H30         8.3660  -10.0390   15.2440 H         1    UNL1     0.0278
     79 H31        11.8520    3.1110    7.7320 H         1    UNL1     0.0625
     80 H32        11.1130    1.7900   11.6540 H         1    UNL1     0.0625
     81 H33         4.2480   -9.1360   10.9490 H         1    UNL1     0.0292
     82 H34         4.0620   -9.4500   12.6580 H         1    UNL1     0.0292
     83 H35         4.5340  -10.7400   11.5790 H         1    UNL1     0.0292
     84 H36        13.5470    1.3940    7.4730 H         1    UNL1     0.0626
     85 H37        12.8080    0.0730   11.3950 H         1    UNL1     0.0626
@<TRIPOS>UNITY_ATOM_ATTR
14 1
charge 1
@<TRIPOS>BOND
     1     1    22    1
     2     2    27    1
     3     3     4    2
     4     3     5    2
     5     3     9    1
     6     3    20    1
     7     6    19    2
     8     7    29    1
     9     7    30    1
    10     8    31    2
    11     9    15    1
    12     9    18    1
    13    10    19   am
    14    10    21    1
    15    11    28    1
    16    11    31   am
    17    12    32   ar
    18    12    39   ar
    19    13    48    1
    20    14    48    2
    21    15    16    1
    22    15    19    1
    23    16    17    1
    24    17    18    1
    25    20    22   ar
    26    20    23   ar
    27    21    24    1
    28    22    25   ar
    29    23    26   ar
    30    24    28    1
    31    25    27   ar
    32    25    29    1
    33    26    27   ar
    34    30    32   ar
    35    30    34   ar
    36    31    35    1
    37    32    33   ar
    38    33    36   ar
    39    33    37   ar
    40    34    38   ar
    41    35    42   ar
    42    35    43   ar
    43    36    40   ar
    44    36    41    1
    45    37    38   ar
    46    39    40   ar
    47    39    44    1
    48    42    45   ar
    49    43    46   ar
    50    45    47   ar
    51    46    47   ar
    52    47    48    1
    53    10    49    1
    54    11    50    1
    55    13    51    1
    56    13    52    1
    57    14    53    1
    58    14    54    1
    59    15    55    1
    60    16    56    1
    61    16    57    1
    62    17    58    1
    63    17    59    1
    64    18    60    1
    65    18    61    1
    66    21    62    1
    67    21    63    1
    68    23    64    1
    69    24    65    1
    70    24    66    1
    71    26    67    1
    72    28    68    1
    73    28    69    1
    74    29    70    1
    75    29    71    1
    76    34    72    1
    77    37    73    1
    78    38    74    1
    79    40    75    1
    80    41    76    1
    81    41    77    1
    82    41    78    1
    83    42    79    1
    84    43    80    1
    85    44    81    1
    86    44    82    1
    87    44    83    1
    88    45    84    1
    89    46    85    1
