#REMARK Cluster  16 of Poses:  1 Score: -6.66 kcal/mol
@<TRIPOS>MOLECULE
9831652
 85 89 0 0 0
SMALL
GASTEIGER

@<TRIPOS>ATOM
      1 CL1         3.6010   -3.2490   14.1100 Cl        1    UNL1    -0.0811
      2 CL2         4.5480   -8.3540   12.5100 Cl        1    UNL1    -0.0831
      3 S3          3.6760   -2.3100   11.0360 S.O2      1    UNL1     0.0629
      4 O4          2.3460   -2.2010   10.4680 O.2       1    UNL1    -0.1528
      5 O5          4.0690   -1.4750   12.1560 O.2       1    UNL1    -0.1528
      6 O6          8.1760   -1.4330   10.7000 O.2       1    UNL1    -0.2740
      7 O7          2.7150   -6.1020   15.0850 O.3       1    UNL1    -0.4851
      8 O8          8.5940    2.7440   11.1120 O.2       1    UNL1    -0.2702
      9 N9          4.8350   -2.1740    9.7980 N.3       1    UNL1    -0.1647
     10 N10         6.2820   -0.2550   10.0330 N.am      1    UNL1    -0.3139
     11 N11         7.3130    4.1850    9.8210 N.am      1    UNL1    -0.3113
     12 N12         1.1560   -5.7610   17.3310 N.ar      1    UNL1    -0.2482
     13 N13        13.0660    8.1770    8.8170 N.pl3     1    UNL1    -0.2497
     14 N14        14.3640    6.3850    9.5700 N.2       1    UNL1    -0.2884
     15 C15         6.2200   -2.6420   10.0830 C.3       1    UNL1     0.1078
     16 C16         6.6630   -3.4040    8.8380 C.3       1    UNL1    -0.0260
     17 C17         5.7760   -2.8530    7.7340 C.3       1    UNL1    -0.0366
     18 C18         4.4470   -2.6520    8.4420 C.3       1    UNL1     0.0214
     19 C19         7.0140   -1.3980   10.3040 C.2       1    UNL1     0.2319
     20 C20         3.9150   -3.9950   11.5140 C.ar      1    UNL1     0.1242
     21 C21         6.8150    1.0800   10.1900 C.3       1    UNL1     0.0131
     22 C22         3.8840   -4.4040   12.8470 C.ar      1    UNL1     0.0750
     23 C23         4.1400   -4.9290   10.5030 C.ar      1    UNL1    -0.0325
     24 C24         6.0300    2.1210    9.3960 C.3       1    UNL1    -0.0217
     25 C25         4.0780   -5.7470   13.1690 C.ar      1    UNL1     0.0281
     26 C26         4.3350   -6.2720   10.8250 C.ar      1    UNL1    -0.0411
     27 C27         4.3040   -6.6810   12.1580 C.ar      1    UNL1     0.0489
     28 C28         6.0550    3.5170   10.0160 C.3       1    UNL1     0.0133
     29 C29         4.0460   -6.1940   14.6000 C.3       1    UNL1     0.1175
     30 C30         2.2260   -7.1870   15.7660 C.ar      1    UNL1     0.1468
     31 C31         8.4970    3.7370   10.3940 C.2       1    UNL1     0.2441
     32 C32         1.4400   -7.0050   16.9000 C.ar      1    UNL1     0.1130
     33 C33         0.9600   -8.1520   17.5670 C.ar      1    UNL1     0.0069
     34 C34         2.5400   -8.4630   15.2900 C.ar      1    UNL1    -0.0178
     35 C35         9.7070    4.5530   10.1180 C.ar      1    UNL1     0.0367
     36 C36         0.1680   -7.9680   18.7080 C.ar      1    UNL1    -0.0395
     37 C37         1.2760   -9.4350   17.0880 C.ar      1    UNL1    -0.0521
     38 C38         2.0650   -9.5880   15.9520 C.ar      1    UNL1    -0.0576
     39 C39         0.3890   -5.6280   18.4380 C.ar      1    UNL1     0.0393
     40 C40        -0.1250   -6.6880   19.1560 C.ar      1    UNL1    -0.0371
     41 C41        -0.3890   -9.1190   19.4850 C.3       1    UNL1    -0.0390
     42 C42        10.4470    4.3330    8.9560 C.ar      1    UNL1    -0.0488
     43 C43        10.1040    5.5400   11.0210 C.ar      1    UNL1    -0.0488
     44 C44         0.0990   -4.2330   18.8820 C.3       1    UNL1    -0.0223
     45 C45        11.5840    5.0990    8.6980 C.ar      1    UNL1    -0.0463
     46 C46        11.2400    6.3060   10.7620 C.ar      1    UNL1    -0.0463
     47 C47        11.9800    6.0860    9.6000 C.ar      1    UNL1     0.0608
     48 C48        13.1640    6.8850    9.3310 C.2       1    UNL1     0.2662
     49 H1          5.3550   -0.3550    9.7190 H         1    UNL1     0.1487
     50 H2          7.3360    4.9930    9.2590 H         1    UNL1     0.1490
     51 H3         13.8710    8.6390    8.4900 H         1    UNL1     0.2883
     52 H4         12.1910    8.6260    8.7800 H         1    UNL1     0.2883
     53 H5         15.1670    6.9250    9.3870 H         1    UNL1     0.3009
     54 H6         14.4550    5.4740    9.9300 H         1    UNL1     0.3009
     55 H7          6.3250   -3.2840   10.9330 H         1    UNL1     0.0575
     56 H8          6.5090   -4.4550    8.9610 H         1    UNL1     0.0286
     57 H9          7.7050   -3.2800    8.6300 H         1    UNL1     0.0286
     58 H10         5.6830   -3.5520    6.9300 H         1    UNL1     0.0279
     59 H11         6.1590   -1.9590    7.2880 H         1    UNL1     0.0279
     60 H12         3.8530   -1.9200    7.9360 H         1    UNL1     0.0444
     61 H13         3.8550   -3.5420    8.4710 H         1    UNL1     0.0444
     62 H14         7.8300    1.0850    9.8540 H         1    UNL1     0.0462
     63 H15         6.7410    1.3390   11.2260 H         1    UNL1     0.0462
     64 H16         4.1630   -4.6260    9.5160 H         1    UNL1     0.0638
     65 H17         5.0120    1.7990    9.3310 H         1    UNL1     0.0295
     66 H18         6.4970    2.1980    8.4360 H         1    UNL1     0.0295
     67 H19         4.5020   -6.9630   10.0770 H         1    UNL1     0.0633
     68 H20         5.2820    4.1050    9.5670 H         1    UNL1     0.0462
     69 H21         5.9060    3.4060   11.0690 H         1    UNL1     0.0462
     70 H22         4.3810   -7.2080   14.6660 H         1    UNL1     0.0749
     71 H23         4.6880   -5.5710   15.1870 H         1    UNL1     0.0749
     72 H24         3.1260   -8.5690   14.4470 H         1    UNL1     0.0655
     73 H25         0.9210  -10.2680   17.5820 H         1    UNL1     0.0624
     74 H26         2.2950  -10.5320   15.6030 H         1    UNL1     0.0619
     75 H27        -0.7070   -6.5350   19.9940 H         1    UNL1     0.0638
     76 H28        -0.0840  -10.0380   19.0300 H         1    UNL1     0.0278
     77 H29        -1.4570   -9.0620   19.4920 H         1    UNL1     0.0278
     78 H30        -0.0230   -9.0810   20.4900 H         1    UNL1     0.0278
     79 H31        10.1540    3.6030    8.2880 H         1    UNL1     0.0625
     80 H32         9.5560    5.7020   11.8810 H         1    UNL1     0.0625
     81 H33         0.5720   -3.5410   18.2160 H         1    UNL1     0.0292
     82 H34         0.4760   -4.0880   19.8730 H         1    UNL1     0.0292
     83 H35        -0.9580   -4.0690   18.8750 H         1    UNL1     0.0292
     84 H36        12.1310    4.9360    7.8380 H         1    UNL1     0.0626
     85 H37        11.5330    7.0360   11.4300 H         1    UNL1     0.0626
@<TRIPOS>UNITY_ATOM_ATTR
14 1
charge 1
@<TRIPOS>BOND
     1     1    22    1
     2     2    27    1
     3     3     4    2
     4     3     5    2
     5     3     9    1
     6     3    20    1
     7     6    19    2
     8     7    29    1
     9     7    30    1
    10     8    31    2
    11     9    15    1
    12     9    18    1
    13    10    19   am
    14    10    21    1
    15    11    28    1
    16    11    31   am
    17    12    32   ar
    18    12    39   ar
    19    13    48    1
    20    14    48    2
    21    15    16    1
    22    15    19    1
    23    16    17    1
    24    17    18    1
    25    20    22   ar
    26    20    23   ar
    27    21    24    1
    28    22    25   ar
    29    23    26   ar
    30    24    28    1
    31    25    27   ar
    32    25    29    1
    33    26    27   ar
    34    30    32   ar
    35    30    34   ar
    36    31    35    1
    37    32    33   ar
    38    33    36   ar
    39    33    37   ar
    40    34    38   ar
    41    35    42   ar
    42    35    43   ar
    43    36    40   ar
    44    36    41    1
    45    37    38   ar
    46    39    40   ar
    47    39    44    1
    48    42    45   ar
    49    43    46   ar
    50    45    47   ar
    51    46    47   ar
    52    47    48    1
    53    10    49    1
    54    11    50    1
    55    13    51    1
    56    13    52    1
    57    14    53    1
    58    14    54    1
    59    15    55    1
    60    16    56    1
    61    16    57    1
    62    17    58    1
    63    17    59    1
    64    18    60    1
    65    18    61    1
    66    21    62    1
    67    21    63    1
    68    23    64    1
    69    24    65    1
    70    24    66    1
    71    26    67    1
    72    28    68    1
    73    28    69    1
    74    29    70    1
    75    29    71    1
    76    34    72    1
    77    37    73    1
    78    38    74    1
    79    40    75    1
    80    41    76    1
    81    41    77    1
    82    41    78    1
    83    42    79    1
    84    43    80    1
    85    44    81    1
    86    44    82    1
    87    44    83    1
    88    45    84    1
    89    46    85    1
