#REMARK Cluster  13 of Poses:  1 Score: -6.93 kcal/mol
@<TRIPOS>MOLECULE
9831652
 85 89 0 0 0
SMALL
GASTEIGER

@<TRIPOS>ATOM
      1 CL1         3.5560   -3.4590   10.6250 Cl        1    UNL1    -0.0811
      2 CL2         7.2040   -7.4770   10.8690 Cl        1    UNL1    -0.0831
      3 S3          5.4880   -1.8750    8.6030 S.O2      1    UNL1     0.0629
      4 O4          6.1240   -1.7670    7.3020 O.2       1    UNL1    -0.1528
      5 O5          4.0520   -1.7140    8.7350 O.2       1    UNL1    -0.1528
      6 O6          5.3450   -0.6040   12.1110 O.2       1    UNL1    -0.2740
      7 O7          3.9930   -7.2350   10.9170 O.3       1    UNL1    -0.4851
      8 O8          1.9830   -1.8810   15.7380 O.2       1    UNL1    -0.2702
      9 N9          6.2760   -0.8480    9.7060 N.3       1    UNL1    -0.1647
     10 N10         6.7340   -2.2490   12.9980 N.am      1    UNL1    -0.3139
     11 N11         3.3960   -1.3880   13.9660 N.am      1    UNL1    -0.3113
     12 N12         1.5940   -8.3680   11.6580 N.ar      1    UNL1    -0.2482
     13 N13         1.6020    5.0550   17.2020 N.pl3     1    UNL1    -0.2497
     14 N14         1.5180    5.3430   14.8850 N.2       1    UNL1    -0.2884
     15 C15         7.1100   -1.4730   10.7700 C.3       1    UNL1     0.1078
     16 C16         8.3790   -0.6310   10.8490 C.3       1    UNL1    -0.0260
     17 C17         7.9660    0.7110   10.2680 C.3       1    UNL1    -0.0366
     18 C18         7.0190    0.3140    9.1490 C.3       1    UNL1     0.0214
     19 C19         6.2880   -1.3850   12.0120 C.2       1    UNL1     0.2319
     20 C20         5.9150   -3.4540    9.2740 C.ar      1    UNL1     0.1242
     21 C21         6.1230   -2.3400   14.3040 C.3       1    UNL1     0.0131
     22 C22         5.0780   -4.1420   10.1530 C.ar      1    UNL1     0.0750
     23 C23         7.1370   -4.0090    8.8960 C.ar      1    UNL1    -0.0325
     24 C24         4.9260   -3.2880   14.3270 C.3       1    UNL1    -0.0217
     25 C25         5.4640   -5.3850   10.6530 C.ar      1    UNL1     0.0281
     26 C26         7.5230   -5.2520    9.3970 C.ar      1    UNL1    -0.0411
     27 C27         6.6870   -5.9400   10.2750 C.ar      1    UNL1     0.0489
     28 C28         3.6960   -2.7460   13.6030 C.3       1    UNL1     0.0133
     29 C29         4.5700   -6.1310   11.5980 C.3       1    UNL1     0.1175
     30 C30         3.9640   -8.4300   11.5880 C.ar      1    UNL1     0.1468
     31 C31         2.5510   -1.0620   15.0210 C.2       1    UNL1     0.2441
     32 C32         2.7470   -8.9950   11.9580 C.ar      1    UNL1     0.1130
     33 C33         2.7680  -10.2260   12.6470 C.ar      1    UNL1     0.0069
     34 C34         5.1800   -9.0520   11.8840 C.ar      1    UNL1    -0.0178
     35 C35         2.3220    0.3870   15.2520 C.ar      1    UNL1     0.0367
     36 C36         1.5420  -10.7940   13.0190 C.ar      1    UNL1    -0.0395
     37 C37         3.9900  -10.8520   12.9440 C.ar      1    UNL1    -0.0521
     38 C38         5.1930  -10.2650   12.5630 C.ar      1    UNL1    -0.0576
     39 C39         0.4320   -8.9500   12.0350 C.ar      1    UNL1     0.0393
     40 C40         0.3520  -10.1510   12.7110 C.ar      1    UNL1    -0.0371
     41 C41         1.4570  -12.0960   13.7520 C.3       1    UNL1    -0.0390
     42 C42         3.3400    1.3050   14.9910 C.ar      1    UNL1    -0.0488
     43 C43         1.0890    0.8310   15.7300 C.ar      1    UNL1    -0.0488
     44 C44        -0.8220   -8.2230   11.6830 C.3       1    UNL1    -0.0223
     45 C45         3.1250    2.6650   15.2090 C.ar      1    UNL1    -0.0463
     46 C46         0.8740    2.1920   15.9480 C.ar      1    UNL1    -0.0463
     47 C47         1.8920    3.1090   15.6870 C.ar      1    UNL1     0.0608
     48 C48         1.6680    4.5280   15.9130 C.2       1    UNL1     0.2662
     49 H1          7.5040   -2.8300   12.7990 H         1    UNL1     0.1487
     50 H2          3.8060   -0.6590   13.4470 H         1    UNL1     0.1490
     51 H3          2.1620    4.6770   17.9180 H         1    UNL1     0.2883
     52 H4          0.9950    5.8050   17.3970 H         1    UNL1     0.2883
     53 H5          1.3660    6.3040   15.0360 H         1    UNL1     0.3009
     54 H6          1.5580    4.9900   13.9670 H         1    UNL1     0.3009
     55 H7          7.3850   -2.4930   10.6010 H         1    UNL1     0.0575
     56 H8          9.1630   -1.0710   10.2690 H         1    UNL1     0.0286
     57 H9          8.7570   -0.5500   11.8460 H         1    UNL1     0.0286
     58 H10         8.8130    1.2430    9.8880 H         1    UNL1     0.0279
     59 H11         7.5220    1.3660   10.9880 H         1    UNL1     0.0279
     60 H12         6.3510    1.1160    8.9130 H         1    UNL1     0.0444
     61 H13         7.5310    0.0800    8.2380 H         1    UNL1     0.0444
     62 H14         5.7940   -1.3650   14.5980 H         1    UNL1     0.0462
     63 H15         6.8570   -2.7280   14.9790 H         1    UNL1     0.0462
     64 H16         7.7560   -3.5000    8.2460 H         1    UNL1     0.0638
     65 H17         4.6620   -3.4740   15.3470 H         1    UNL1     0.0295
     66 H18         5.2240   -4.1780   13.8120 H         1    UNL1     0.0295
     67 H19         8.4280   -5.6630    9.1170 H         1    UNL1     0.0633
     68 H20         3.8730   -2.7870   12.5480 H         1    UNL1     0.0462
     69 H21         2.8600   -3.3500   13.8860 H         1    UNL1     0.0462
     70 H22         5.1430   -6.4820   12.4310 H         1    UNL1     0.0749
     71 H23         3.7970   -5.4810   11.9510 H         1    UNL1     0.0749
     72 H24         6.0680   -8.6120   11.5980 H         1    UNL1     0.0655
     73 H25         3.9960  -11.7520   13.4490 H         1    UNL1     0.0624
     74 H26         6.0890  -10.7270   12.7830 H         1    UNL1     0.0619
     75 H27        -0.5590  -10.5550   12.9780 H         1    UNL1     0.0638
     76 H28         2.4430  -12.4750   13.9210 H         1    UNL1     0.0278
     77 H29         0.9000  -12.7990   13.1680 H         1    UNL1     0.0278
     78 H30         0.9670  -11.9460   14.6910 H         1    UNL1     0.0278
     79 H31         4.2520    0.9760   14.6370 H         1    UNL1     0.0625
     80 H32         0.3360    0.1520   15.9230 H         1    UNL1     0.0625
     81 H33        -0.5770   -7.3190   11.1660 H         1    UNL1     0.0292
     82 H34        -1.3610   -7.9870   12.5770 H         1    UNL1     0.0292
     83 H35        -1.4280   -8.8410   11.0540 H         1    UNL1     0.0292
     84 H36         3.8780    3.3440   15.0160 H         1    UNL1     0.0626
     85 H37        -0.0380    2.5200   16.3020 H         1    UNL1     0.0626
@<TRIPOS>UNITY_ATOM_ATTR
14 1
charge 1
@<TRIPOS>BOND
     1     1    22    1
     2     2    27    1
     3     3     4    2
     4     3     5    2
     5     3     9    1
     6     3    20    1
     7     6    19    2
     8     7    29    1
     9     7    30    1
    10     8    31    2
    11     9    15    1
    12     9    18    1
    13    10    19   am
    14    10    21    1
    15    11    28    1
    16    11    31   am
    17    12    32   ar
    18    12    39   ar
    19    13    48    1
    20    14    48    2
    21    15    16    1
    22    15    19    1
    23    16    17    1
    24    17    18    1
    25    20    22   ar
    26    20    23   ar
    27    21    24    1
    28    22    25   ar
    29    23    26   ar
    30    24    28    1
    31    25    27   ar
    32    25    29    1
    33    26    27   ar
    34    30    32   ar
    35    30    34   ar
    36    31    35    1
    37    32    33   ar
    38    33    36   ar
    39    33    37   ar
    40    34    38   ar
    41    35    42   ar
    42    35    43   ar
    43    36    40   ar
    44    36    41    1
    45    37    38   ar
    46    39    40   ar
    47    39    44    1
    48    42    45   ar
    49    43    46   ar
    50    45    47   ar
    51    46    47   ar
    52    47    48    1
    53    10    49    1
    54    11    50    1
    55    13    51    1
    56    13    52    1
    57    14    53    1
    58    14    54    1
    59    15    55    1
    60    16    56    1
    61    16    57    1
    62    17    58    1
    63    17    59    1
    64    18    60    1
    65    18    61    1
    66    21    62    1
    67    21    63    1
    68    23    64    1
    69    24    65    1
    70    24    66    1
    71    26    67    1
    72    28    68    1
    73    28    69    1
    74    29    70    1
    75    29    71    1
    76    34    72    1
    77    37    73    1
    78    38    74    1
    79    40    75    1
    80    41    76    1
    81    41    77    1
    82    41    78    1
    83    42    79    1
    84    43    80    1
    85    44    81    1
    86    44    82    1
    87    44    83    1
    88    45    84    1
    89    46    85    1
