#REMARK Cluster  17 of Poses:  1 Score: -5.58 kcal/mol
@<TRIPOS>MOLECULE
9895193
 91 93 0 0 0
SMALL
GASTEIGER

@<TRIPOS>ATOM
      1 S1          5.7920   -6.6630   13.1450 S.O2      1    UNL1     0.0596
      2 O2          5.6310   -6.1480   14.4910 O.2       1    UNL1    -0.1530
      3 O3          7.1190   -6.8750   12.5990 O.2       1    UNL1    -0.1530
      4 O4          5.1300   -3.0570   12.8820 O.2       1    UNL1    -0.2738
      5 O5         11.8200   -3.3680   14.2990 O.3       1    UNL1    -0.4505
      6 O6         12.2650   -3.7600   12.0910 O.2       1    UNL1    -0.2263
      7 N7          7.3590   -3.3780   12.3150 N.am      1    UNL1    -0.2972
      8 N8          4.8950   -5.7020   12.0630 N.3       1    UNL1    -0.1777
      9 N9         10.0830   -3.8880   12.8790 N.am      1    UNL1    -0.2644
     10 N10         6.9910   -5.5500    4.6140 N.pl3     1    UNL1    -0.2497
     11 N11         6.6310   -6.9990    6.4110 N.2       1    UNL1    -0.2884
     12 C12         4.9410   -8.2090   13.0460 C.ar      1    UNL1     0.1121
     13 C13         5.5760   -4.6960   11.2290 C.3       1    UNL1     0.1089
     14 C14         3.5800   -8.2760   13.3460 C.ar      1    UNL1    -0.0179
     15 C15         5.6310   -9.3620   12.6710 C.ar      1    UNL1    -0.0179
     16 C16         7.9290   -2.9250   13.5860 C.3       1    UNL1     0.0307
     17 C17         8.3230   -3.4580   11.2090 C.3       1    UNL1     0.0307
     18 C18         5.9930   -3.6360   12.2160 C.2       1    UNL1     0.2346
     19 C19         2.8090   -7.0620   13.7490 C.3       1    UNL1    -0.0196
     20 C20         7.0880   -9.3290   12.3450 C.3       1    UNL1    -0.0196
     21 C21         9.1230   -3.7890   13.9850 C.3       1    UNL1     0.0336
     22 C22         9.5190   -4.3220   11.6000 C.3       1    UNL1     0.0336
     23 C23         3.5990  -10.6490   12.8930 C.ar      1    UNL1    -0.0441
     24 C24         4.6260   -4.1120   10.1940 C.3       1    UNL1    -0.0021
     25 C25         2.9090   -9.4970   13.2690 C.ar      1    UNL1    -0.0530
     26 C26         4.9590  -10.5820   12.5940 C.ar      1    UNL1    -0.0530
     27 C27         2.8810  -11.9550   12.8120 C.3       1    UNL1    -0.0215
     28 C28         1.8020   -6.6230   12.6710 C.3       1    UNL1    -0.0586
     29 C29         2.0870   -7.2470   15.0970 C.3       1    UNL1    -0.0586
     30 C30         7.6470  -10.7250   12.0150 C.3       1    UNL1    -0.0586
     31 C31         7.4110   -8.3510   11.2010 C.3       1    UNL1    -0.0586
     32 C32         5.3110   -3.8440    8.8770 C.ar      1    UNL1    -0.0446
     33 C33         3.5040  -13.0260   13.7270 C.3       1    UNL1    -0.0586
     34 C34         2.7900  -12.4880   11.3700 C.3       1    UNL1    -0.0586
     35 C35        11.4570   -3.6780   13.0150 C.2       1    UNL1     0.4029
     36 C36         5.6520   -4.9050    8.0380 C.ar      1    UNL1    -0.0438
     37 C37         5.6040   -2.5340    8.4970 C.ar      1    UNL1    -0.0585
     38 C38         6.2850   -4.6570    6.8200 C.ar      1    UNL1     0.0611
     39 C39         6.2370   -2.2850    7.2790 C.ar      1    UNL1    -0.0607
     40 C40         6.5770   -3.3470    6.4410 C.ar      1    UNL1    -0.0470
     41 C41        12.9640   -4.0580   14.8150 C.3       1    UNL1     0.0913
     42 C42         6.6410   -5.7630    5.9460 C.2       1    UNL1     0.2662
     43 C43        14.2180   -3.3450   14.3570 C.3       1    UNL1    -0.0305
     44 H1          4.2020   -5.2020   12.6200 H         1    UNL1     0.1489
     45 H2          7.0170   -6.3070    3.9840 H         1    UNL1     0.2883
     46 H3          7.2130   -4.6430    4.3020 H         1    UNL1     0.2883
     47 H4          6.8720   -7.7490    5.8210 H         1    UNL1     0.3009
     48 H5          6.3830   -7.1700    7.3480 H         1    UNL1     0.3009
     49 H6          6.3970   -5.1060   10.6800 H         1    UNL1     0.0576
     50 H7          7.1800   -2.9890   14.3480 H         1    UNL1     0.0480
     51 H8          8.2600   -1.9140   13.4720 H         1    UNL1     0.0480
     52 H9          8.6650   -2.4730   10.9680 H         1    UNL1     0.0480
     53 H10         7.8410   -3.9000   10.3620 H         1    UNL1     0.0480
     54 H11         3.5360   -6.2860   13.8640 H         1    UNL1     0.0344
     55 H12         7.5720   -8.9770   13.2320 H         1    UNL1     0.0344
     56 H13         9.6060   -3.3500   14.8320 H         1    UNL1     0.0481
     57 H14         8.7720   -4.7710   14.2250 H         1    UNL1     0.0481
     58 H15         9.2020   -5.3400   11.6850 H         1    UNL1     0.0481
     59 H16        10.2710   -4.2250   10.8460 H         1    UNL1     0.0481
     60 H17         4.2300   -3.1910   10.5700 H         1    UNL1     0.0334
     61 H18         3.8500   -4.8280   10.0200 H         1    UNL1     0.0334
     62 H19         1.9020   -9.5470   13.4900 H         1    UNL1     0.0624
     63 H20         5.4690  -11.4350   12.3160 H         1    UNL1     0.0624
     64 H21         1.8890  -11.7540   13.1590 H         1    UNL1     0.0343
     65 H22         1.0630   -7.3860   12.5400 H         1    UNL1     0.0235
     66 H23         2.3160   -6.4620   11.7470 H         1    UNL1     0.0235
     67 H24         1.3250   -5.7150   12.9770 H         1    UNL1     0.0235
     68 H25         1.3540   -8.0210   15.0050 H         1    UNL1     0.0235
     69 H26         1.6080   -6.3320   15.3730 H         1    UNL1     0.0235
     70 H27         2.7990   -7.5180   15.8480 H         1    UNL1     0.0235
     71 H28         7.1770  -11.0970   11.1290 H         1    UNL1     0.0235
     72 H29         7.4500  -11.3900   12.8300 H         1    UNL1     0.0235
     73 H30         8.7030  -10.6580   11.8570 H         1    UNL1     0.0235
     74 H31         6.9370   -8.6840   10.3020 H         1    UNL1     0.0235
     75 H32         8.4700   -8.3130   11.0530 H         1    UNL1     0.0235
     76 H33         7.0510   -7.3750   11.4540 H         1    UNL1     0.0235
     77 H34         4.4990  -13.2420   13.3980 H         1    UNL1     0.0235
     78 H35         2.9130  -13.9180   13.6860 H         1    UNL1     0.0235
     79 H36         3.5320  -12.6640   14.7330 H         1    UNL1     0.0235
     80 H37         3.7740  -12.6950   11.0040 H         1    UNL1     0.0235
     81 H38         2.3250  -11.7530   10.7470 H         1    UNL1     0.0235
     82 H39         2.2080  -13.3860   11.3580 H         1    UNL1     0.0235
     83 H40         5.4360   -5.8740    8.3190 H         1    UNL1     0.0629
     84 H41         5.3520   -1.7480    9.1170 H         1    UNL1     0.0620
     85 H42         6.4530   -1.3160    6.9980 H         1    UNL1     0.0618
     86 H43         7.0460   -3.1630    5.5400 H         1    UNL1     0.0626
     87 H44        12.9710   -5.0640   14.4520 H         1    UNL1     0.0695
     88 H45        12.9260   -4.0710   15.8850 H         1    UNL1     0.0695
     89 H46        14.2520   -3.3340   13.2880 H         1    UNL1     0.0262
     90 H47        15.0780   -3.8560   14.7370 H         1    UNL1     0.0262
     91 H48        14.2110   -2.3390   14.7240 H         1    UNL1     0.0262
@<TRIPOS>UNITY_ATOM_ATTR
11 1
charge 1
@<TRIPOS>BOND
     1     1     2    2
     2     1     3    2
     3     1     8    1
     4     1    12    1
     5     4    18    2
     6     5    35    1
     7     5    41    1
     8     6    35    2
     9     7    16    1
    10     7    17    1
    11     7    18   am
    12     8    13    1
    13     9    21    1
    14     9    22    1
    15     9    35   am
    16    10    42    1
    17    11    42    2
    18    12    14   ar
    19    12    15   ar
    20    13    18    1
    21    13    24    1
    22    14    19    1
    23    14    25   ar
    24    15    20    1
    25    15    26   ar
    26    16    21    1
    27    17    22    1
    28    19    28    1
    29    19    29    1
    30    20    30    1
    31    20    31    1
    32    23    25   ar
    33    23    26   ar
    34    23    27    1
    35    24    32    1
    36    27    33    1
    37    27    34    1
    38    32    36   ar
    39    32    37   ar
    40    36    38   ar
    41    37    39   ar
    42    38    40   ar
    43    38    42    1
    44    39    40   ar
    45    41    43    1
    46     8    44    1
    47    10    45    1
    48    10    46    1
    49    11    47    1
    50    11    48    1
    51    13    49    1
    52    16    50    1
    53    16    51    1
    54    17    52    1
    55    17    53    1
    56    19    54    1
    57    20    55    1
    58    21    56    1
    59    21    57    1
    60    22    58    1
    61    22    59    1
    62    24    60    1
    63    24    61    1
    64    25    62    1
    65    26    63    1
    66    27    64    1
    67    28    65    1
    68    28    66    1
    69    28    67    1
    70    29    68    1
    71    29    69    1
    72    29    70    1
    73    30    71    1
    74    30    72    1
    75    30    73    1
    76    31    74    1
    77    31    75    1
    78    31    76    1
    79    33    77    1
    80    33    78    1
    81    33    79    1
    82    34    80    1
    83    34    81    1
    84    34    82    1
    85    36    83    1
    86    37    84    1
    87    39    85    1
    88    40    86    1
    89    41    87    1
    90    41    88    1
    91    43    89    1
    92    43    90    1
    93    43    91    1
