#REMARK Cluster   3 of Poses:  1 Score: -8.30 kcal/mol
@<TRIPOS>MOLECULE
9895193
 91 93 0 0 0
SMALL
GASTEIGER

@<TRIPOS>ATOM
      1 S1          6.3970    0.4510    9.9280 S.O2      1    UNL1     0.0596
      2 O2          6.4260    0.9750    8.5760 O.2       1    UNL1    -0.1530
      3 O3          7.6050   -0.0790   10.5320 O.2       1    UNL1    -0.1530
      4 O4          3.3640   -3.1400   10.0190 O.2       1    UNL1    -0.2738
      5 O5          8.2740   -7.8690   10.6420 O.3       1    UNL1    -0.4505
      6 O6          9.8150   -6.2170   10.9940 O.2       1    UNL1    -0.2263
      7 N7          5.5640   -3.8210   10.3210 N.am      1    UNL1    -0.2972
      8 N8          5.1580   -0.7090   10.0550 N.3       1    UNL1    -0.1777
      9 N9          7.6910   -5.6820   10.2180 N.am      1    UNL1    -0.2644
     10 N10         7.1000   -6.8190    4.4840 N.pl3     1    UNL1    -0.2497
     11 N11         6.6220   -6.9990    6.7650 N.2       1    UNL1    -0.2884
     12 C12         5.8060    1.7300   10.9960 C.ar      1    UNL1     0.1121
     13 C13         5.0370   -1.7740    9.0440 C.3       1    UNL1     0.1089
     14 C14         5.4830    2.9820   10.4730 C.ar      1    UNL1    -0.0179
     15 C15         5.6640    1.4870   12.3620 C.ar      1    UNL1    -0.0179
     16 C16         5.2820   -5.2480   10.4930 C.3       1    UNL1     0.0307
     17 C17         6.9060   -3.4080   10.7520 C.3       1    UNL1     0.0307
     18 C18         4.5720   -2.9690    9.8370 C.2       1    UNL1     0.2346
     19 C19         5.6200    3.2780    9.0150 C.3       1    UNL1    -0.0196
     20 C20         6.0020    0.1600   12.9590 C.3       1    UNL1    -0.0196
     21 C21         6.3460   -6.0990    9.8050 C.3       1    UNL1     0.0336
     22 C22         7.9750   -4.2550   10.0650 C.3       1    UNL1     0.0336
     23 C23         4.8750    3.7480   12.6820 C.ar      1    UNL1    -0.0441
     24 C24         6.3800   -2.0620    8.3900 C.3       1    UNL1    -0.0021
     25 C25         5.0170    3.9910   11.3160 C.ar      1    UNL1    -0.0530
     26 C26         5.1980    2.4960   13.2050 C.ar      1    UNL1    -0.0530
     27 C27         4.3780    4.8270   13.5840 C.3       1    UNL1    -0.0215
     28 C28         4.2700    3.6090    8.3540 C.3       1    UNL1    -0.0586
     29 C29         6.6300    4.4060    8.7380 C.3       1    UNL1    -0.0586
     30 C30         7.0580    0.2700   14.0740 C.3       1    UNL1    -0.0586
     31 C31         4.7590   -0.5800   13.4850 C.3       1    UNL1    -0.0586
     32 C32         6.2310   -2.7890    7.0760 C.ar      1    UNL1    -0.0446
     33 C33         5.4950    5.4190   14.4650 C.3       1    UNL1    -0.0586
     34 C34         3.2060    4.3620   14.4690 C.3       1    UNL1    -0.0586
     35 C35         8.6870   -6.5630   10.6470 C.2       1    UNL1     0.4029
     36 C36         6.5330   -4.1490    6.9920 C.ar      1    UNL1    -0.0438
     37 C37         5.7910   -2.1010    5.9450 C.ar      1    UNL1    -0.0585
     38 C38         6.3940   -4.8200    5.7770 C.ar      1    UNL1     0.0611
     39 C39         5.6530   -2.7730    4.7300 C.ar      1    UNL1    -0.0607
     40 C40         5.9550   -4.1320    4.6470 C.ar      1    UNL1    -0.0470
     41 C41         8.3850   -8.5720   11.8850 C.3       1    UNL1     0.0913
     42 C42         6.7090   -6.2370    5.6890 C.2       1    UNL1     0.2662
     43 C43         9.6000   -9.4730   11.8350 C.3       1    UNL1    -0.0305
     44 H1          4.2750   -0.1980   10.0510 H         1    UNL1     0.1489
     45 H2          7.4330   -7.7450    4.4710 H         1    UNL1     0.2883
     46 H3          7.0420   -6.3040    3.6470 H         1    UNL1     0.2883
     47 H4          6.8350   -7.9590    6.7070 H         1    UNL1     0.3009
     48 H5          6.3450   -6.6070    7.6240 H         1    UNL1     0.3009
     49 H6          4.3700   -1.5120    8.2490 H         1    UNL1     0.0576
     50 H7          4.3260   -5.4710   10.0680 H         1    UNL1     0.0480
     51 H8          5.2870   -5.4740   11.5390 H         1    UNL1     0.0480
     52 H9          6.9880   -3.5300   11.8120 H         1    UNL1     0.0480
     53 H10         7.0540   -2.3830   10.4840 H         1    UNL1     0.0480
     54 H11         5.9950    2.3780    8.5740 H         1    UNL1     0.0344
     55 H12         6.4190   -0.4160   12.1590 H         1    UNL1     0.0344
     56 H13         6.1990   -7.1260   10.0700 H         1    UNL1     0.0481
     57 H14         6.2560   -5.9730    8.7470 H         1    UNL1     0.0481
     58 H15         7.9980   -4.0120    9.0240 H         1    UNL1     0.0481
     59 H16         8.9200   -4.0450   10.5200 H         1    UNL1     0.0481
     60 H17         6.9630   -2.6660    9.0540 H         1    UNL1     0.0334
     61 H18         6.8570   -1.1250    8.1950 H         1    UNL1     0.0334
     62 H19         4.7780    4.9170   10.9290 H         1    UNL1     0.0624
     63 H20         5.0930    2.3160   14.2160 H         1    UNL1     0.0624
     64 H21         4.0210    5.5980   12.9330 H         1    UNL1     0.0343
     65 H22         3.8750    4.5070    8.7810 H         1    UNL1     0.0235
     66 H23         3.5840    2.8040    8.5210 H         1    UNL1     0.0235
     67 H24         4.4110    3.7460    7.3030 H         1    UNL1     0.0235
     68 H25         6.2740    5.3170    9.1710 H         1    UNL1     0.0235
     69 H26         6.7430    4.5330    7.6820 H         1    UNL1     0.0235
     70 H27         7.5760    4.1510    9.1700 H         1    UNL1     0.0235
     71 H28         6.6610    0.8420   14.8860 H         1    UNL1     0.0235
     72 H29         7.9320    0.7530   13.6900 H         1    UNL1     0.0235
     73 H30         7.3150   -0.7100   14.4200 H         1    UNL1     0.0235
     74 H31         4.3240   -0.0210   14.2880 H         1    UNL1     0.0235
     75 H32         5.0430   -1.5490   13.8390 H         1    UNL1     0.0235
     76 H33         4.0440   -0.6840   12.6950 H         1    UNL1     0.0235
     77 H34         5.8670    4.6630   15.1250 H         1    UNL1     0.0235
     78 H35         5.1030    6.2320   15.0390 H         1    UNL1     0.0235
     79 H36         6.2900    5.7720   13.8430 H         1    UNL1     0.0235
     80 H37         3.5420    3.5900   15.1290 H         1    UNL1     0.0235
     81 H38         2.4190    3.9850   13.8490 H         1    UNL1     0.0235
     82 H39         2.8430    5.1890   15.0430 H         1    UNL1     0.0235
     83 H40         6.8580   -4.6580    7.8290 H         1    UNL1     0.0629
     84 H41         5.5680   -1.0960    6.0070 H         1    UNL1     0.0620
     85 H42         5.3280   -2.2640    3.8930 H         1    UNL1     0.0618
     86 H43         5.8520   -4.6290    3.7480 H         1    UNL1     0.0626
     87 H44         7.5070   -9.1620   12.0430 H         1    UNL1     0.0695
     88 H45         8.4870   -7.8720   12.6880 H         1    UNL1     0.0695
     89 H46         9.4940  -10.1710   11.0310 H         1    UNL1     0.0262
     90 H47         9.6880  -10.0050   12.7600 H         1    UNL1     0.0262
     91 H48        10.4780   -8.8810   11.6800 H         1    UNL1     0.0262
@<TRIPOS>UNITY_ATOM_ATTR
11 1
charge 1
@<TRIPOS>BOND
     1     1     2    2
     2     1     3    2
     3     1     8    1
     4     1    12    1
     5     4    18    2
     6     5    35    1
     7     5    41    1
     8     6    35    2
     9     7    16    1
    10     7    17    1
    11     7    18   am
    12     8    13    1
    13     9    21    1
    14     9    22    1
    15     9    35   am
    16    10    42    1
    17    11    42    2
    18    12    14   ar
    19    12    15   ar
    20    13    18    1
    21    13    24    1
    22    14    19    1
    23    14    25   ar
    24    15    20    1
    25    15    26   ar
    26    16    21    1
    27    17    22    1
    28    19    28    1
    29    19    29    1
    30    20    30    1
    31    20    31    1
    32    23    25   ar
    33    23    26   ar
    34    23    27    1
    35    24    32    1
    36    27    33    1
    37    27    34    1
    38    32    36   ar
    39    32    37   ar
    40    36    38   ar
    41    37    39   ar
    42    38    40   ar
    43    38    42    1
    44    39    40   ar
    45    41    43    1
    46     8    44    1
    47    10    45    1
    48    10    46    1
    49    11    47    1
    50    11    48    1
    51    13    49    1
    52    16    50    1
    53    16    51    1
    54    17    52    1
    55    17    53    1
    56    19    54    1
    57    20    55    1
    58    21    56    1
    59    21    57    1
    60    22    58    1
    61    22    59    1
    62    24    60    1
    63    24    61    1
    64    25    62    1
    65    26    63    1
    66    27    64    1
    67    28    65    1
    68    28    66    1
    69    28    67    1
    70    29    68    1
    71    29    69    1
    72    29    70    1
    73    30    71    1
    74    30    72    1
    75    30    73    1
    76    31    74    1
    77    31    75    1
    78    31    76    1
    79    33    77    1
    80    33    78    1
    81    33    79    1
    82    34    80    1
    83    34    81    1
    84    34    82    1
    85    36    83    1
    86    37    84    1
    87    39    85    1
    88    40    86    1
    89    41    87    1
    90    41    88    1
    91    43    89    1
    92    43    90    1
    93    43    91    1
