#REMARK Cluster  10 of Poses:  1 Score: -7.30 kcal/mol
@<TRIPOS>MOLECULE
9895193
 91 93 0 0 0
SMALL
GASTEIGER

@<TRIPOS>ATOM
      1 S1          8.0940   -4.3070   13.2830 S.O2      1    UNL1     0.0596
      2 O2          6.9310   -4.0550   14.1120 O.2       1    UNL1    -0.1530
      3 O3          8.6270   -3.2580   12.4350 O.2       1    UNL1    -0.1530
      4 O4          7.2650   -7.9040   10.5560 O.2       1    UNL1    -0.2738
      5 O5          0.8760   -8.2000   12.9960 O.3       1    UNL1    -0.4505
      6 O6          0.4650   -6.1120   12.1600 O.2       1    UNL1    -0.2263
      7 N7          5.1540   -7.0240   10.9580 N.am      1    UNL1    -0.2972
      8 N8          7.8220   -5.6990   12.3410 N.3       1    UNL1    -0.1777
      9 N9          2.6400   -6.9220   12.2510 N.am      1    UNL1    -0.2644
     10 N10         6.0870   -1.4320    6.1570 N.pl3     1    UNL1    -0.2497
     11 N11         4.2060   -2.4020    7.1470 N.2       1    UNL1    -0.2884
     12 C12         9.4110   -4.8360   14.3370 C.ar      1    UNL1     0.1121
     13 C13         7.1590   -5.5850   11.0290 C.3       1    UNL1     0.1089
     14 C14         9.2040   -4.9420   15.7120 C.ar      1    UNL1    -0.0179
     15 C15        10.6570   -5.1470   13.7930 C.ar      1    UNL1    -0.0179
     16 C16         4.5350   -8.2650   11.4300 C.3       1    UNL1     0.0307
     17 C17         4.2000   -5.9650   10.6010 C.3       1    UNL1     0.0307
     18 C18         6.5390   -6.9440   10.8240 C.2       1    UNL1     0.2346
     19 C19         7.8830   -4.6190   16.3300 C.3       1    UNL1    -0.0196
     20 C20        10.9170   -5.0440   12.3250 C.3       1    UNL1    -0.0196
     21 C21         3.5860   -7.9910   12.5940 C.3       1    UNL1     0.0336
     22 C22         3.2490   -5.6840   11.7620 C.3       1    UNL1     0.0336
     23 C23        11.4900   -5.6690   16.0000 C.ar      1    UNL1    -0.0441
     24 C24         8.1690   -5.2910    9.9300 C.3       1    UNL1    -0.0021
     25 C25        10.2440   -5.3580   16.5440 C.ar      1    UNL1    -0.0530
     26 C26        11.6970   -5.5640   14.6240 C.ar      1    UNL1    -0.0530
     27 C27        12.6020   -6.1140   16.8890 C.3       1    UNL1    -0.0215
     28 C28         7.2090   -5.8560   16.9520 C.3       1    UNL1    -0.0586
     29 C29         7.9840   -3.4940   17.3760 C.3       1    UNL1    -0.0586
     30 C30        12.1380   -4.1630   12.0060 C.3       1    UNL1    -0.0586
     31 C31        11.0760   -6.4230   11.6600 C.3       1    UNL1    -0.0586
     32 C32         7.5100   -5.0950    8.5870 C.ar      1    UNL1    -0.0446
     33 C33        13.8820   -5.2780   16.6940 C.3       1    UNL1    -0.0586
     34 C34        12.9260   -7.6110   16.7240 C.3       1    UNL1    -0.0586
     35 C35         1.2600   -7.0060   12.4460 C.2       1    UNL1     0.4029
     36 C36         6.8110   -3.9180    8.3170 C.ar      1    UNL1    -0.0438
     37 C37         7.6000   -6.0910    7.6140 C.ar      1    UNL1    -0.0585
     38 C38         6.2030   -3.7370    7.0750 C.ar      1    UNL1     0.0611
     39 C39         6.9920   -5.9090    6.3720 C.ar      1    UNL1    -0.0607
     40 C40         6.2930   -4.7320    6.1030 C.ar      1    UNL1    -0.0470
     41 C41        -0.5340   -8.4040   13.1420 C.3       1    UNL1     0.0913
     42 C42         5.4740   -2.5100    6.7930 C.2       1    UNL1     0.2662
     43 C43        -1.0520   -9.1540   11.9330 C.3       1    UNL1    -0.0305
     44 H1          7.2520   -6.3290   12.9050 H         1    UNL1     0.1489
     45 H2          6.8640   -1.5840    5.5710 H         1    UNL1     0.2883
     46 H3          5.7440   -0.5200    6.2930 H         1    UNL1     0.2883
     47 H4          3.7110   -1.5730    6.9570 H         1    UNL1     0.3009
     48 H5          3.7560   -3.1510    7.6010 H         1    UNL1     0.3009
     49 H6          6.4450   -4.7880   10.9980 H         1    UNL1     0.0576
     50 H7          5.3010   -8.9380   11.7540 H         1    UNL1     0.0480
     51 H8          3.9750   -8.6960   10.6260 H         1    UNL1     0.0480
     52 H9          3.6320   -6.2760    9.7490 H         1    UNL1     0.0480
     53 H10         4.7450   -5.0720   10.3780 H         1    UNL1     0.0480
     54 H11         7.2670   -4.2730   15.5260 H         1    UNL1     0.0344
     55 H12        10.0480   -4.5730   11.9140 H         1    UNL1     0.0344
     56 H13         3.0410   -8.8830   12.8200 H         1    UNL1     0.0481
     57 H14         4.1620   -7.6830   13.4410 H         1    UNL1     0.0481
     58 H15         3.7960   -5.2240   12.5580 H         1    UNL1     0.0481
     59 H16         2.4720   -5.0350   11.4160 H         1    UNL1     0.0481
     60 H17         8.8520   -6.1120    9.8620 H         1    UNL1     0.0334
     61 H18         8.6740   -4.3830   10.1840 H         1    UNL1     0.0334
     62 H19        10.0910   -5.4360   17.5610 H         1    UNL1     0.0624
     63 H20        12.6190   -5.7940   14.2220 H         1    UNL1     0.0624
     64 H21        12.2480   -5.9560   17.8860 H         1    UNL1     0.0343
     65 H22         7.8090   -6.2190   17.7610 H         1    UNL1     0.0235
     66 H23         7.1110   -6.6200   16.2100 H         1    UNL1     0.0235
     67 H24         6.2410   -5.5880   17.3190 H         1    UNL1     0.0235
     68 H25         8.5960   -3.8190   18.1910 H         1    UNL1     0.0235
     69 H26         7.0050   -3.2550   17.7380 H         1    UNL1     0.0235
     70 H27         8.4200   -2.6270   16.9260 H         1    UNL1     0.0235
     71 H28        13.0200   -4.6160   12.4090 H         1    UNL1     0.0235
     72 H29        12.0030   -3.1950   12.4420 H         1    UNL1     0.0235
     73 H30        12.2400   -4.0660   10.9450 H         1    UNL1     0.0235
     74 H31        11.9410   -6.9130   12.0570 H         1    UNL1     0.0235
     75 H32        11.1910   -6.2980   10.6040 H         1    UNL1     0.0235
     76 H33        10.2080   -7.0170   11.8560 H         1    UNL1     0.0235
     77 H34        14.2530   -5.4220   15.7010 H         1    UNL1     0.0235
     78 H35        14.6220   -5.5890   17.4010 H         1    UNL1     0.0235
     79 H36        13.6580   -4.2430   16.8440 H         1    UNL1     0.0235
     80 H37        13.2830   -7.7910   15.7310 H         1    UNL1     0.0235
     81 H38        12.0410   -8.1880   16.8950 H         1    UNL1     0.0235
     82 H39        13.6780   -7.8930   17.4300 H         1    UNL1     0.0235
     83 H40         6.7440   -3.1810    9.0370 H         1    UNL1     0.0629
     84 H41         8.1160   -6.9610    7.8140 H         1    UNL1     0.0620
     85 H42         7.0580   -6.6460    5.6520 H         1    UNL1     0.0618
     86 H43         5.8440   -4.5980    5.1840 H         1    UNL1     0.0626
     87 H44        -1.0280   -7.4570   13.2150 H         1    UNL1     0.0695
     88 H45        -0.7280   -8.9700   14.0290 H         1    UNL1     0.0695
     89 H46        -0.8560   -8.5840   11.0490 H         1    UNL1     0.0262
     90 H47        -2.1060   -9.3070   12.0320 H         1    UNL1     0.0262
     91 H48        -0.5590  -10.1010   11.8630 H         1    UNL1     0.0262
@<TRIPOS>UNITY_ATOM_ATTR
11 1
charge 1
@<TRIPOS>BOND
     1     1     2    2
     2     1     3    2
     3     1     8    1
     4     1    12    1
     5     4    18    2
     6     5    35    1
     7     5    41    1
     8     6    35    2
     9     7    16    1
    10     7    17    1
    11     7    18   am
    12     8    13    1
    13     9    21    1
    14     9    22    1
    15     9    35   am
    16    10    42    1
    17    11    42    2
    18    12    14   ar
    19    12    15   ar
    20    13    18    1
    21    13    24    1
    22    14    19    1
    23    14    25   ar
    24    15    20    1
    25    15    26   ar
    26    16    21    1
    27    17    22    1
    28    19    28    1
    29    19    29    1
    30    20    30    1
    31    20    31    1
    32    23    25   ar
    33    23    26   ar
    34    23    27    1
    35    24    32    1
    36    27    33    1
    37    27    34    1
    38    32    36   ar
    39    32    37   ar
    40    36    38   ar
    41    37    39   ar
    42    38    40   ar
    43    38    42    1
    44    39    40   ar
    45    41    43    1
    46     8    44    1
    47    10    45    1
    48    10    46    1
    49    11    47    1
    50    11    48    1
    51    13    49    1
    52    16    50    1
    53    16    51    1
    54    17    52    1
    55    17    53    1
    56    19    54    1
    57    20    55    1
    58    21    56    1
    59    21    57    1
    60    22    58    1
    61    22    59    1
    62    24    60    1
    63    24    61    1
    64    25    62    1
    65    26    63    1
    66    27    64    1
    67    28    65    1
    68    28    66    1
    69    28    67    1
    70    29    68    1
    71    29    69    1
    72    29    70    1
    73    30    71    1
    74    30    72    1
    75    30    73    1
    76    31    74    1
    77    31    75    1
    78    31    76    1
    79    33    77    1
    80    33    78    1
    81    33    79    1
    82    34    80    1
    83    34    81    1
    84    34    82    1
    85    36    83    1
    86    37    84    1
    87    39    85    1
    88    40    86    1
    89    41    87    1
    90    41    88    1
    91    43    89    1
    92    43    90    1
    93    43    91    1
