#REMARK Cluster   3 of Poses:  1 Score: -7.87 kcal/mol
@<TRIPOS>MOLECULE
9831652
 85 89 0 0 0
SMALL
GASTEIGER

@<TRIPOS>ATOM
      1 CL1         7.8520   -4.8390    7.4380 Cl        1    UNL1    -0.0811
      2 CL2         6.0140   -7.3690   11.8810 Cl        1    UNL1    -0.0831
      3 S3          5.7720   -2.4480    7.9820 S.O2      1    UNL1     0.0629
      4 O4          6.9290   -2.4650    7.1060 O.2       1    UNL1    -0.1528
      5 O5          4.4310   -2.4230    7.4290 O.2       1    UNL1    -0.1528
      6 O6          7.7570   -2.3250   11.8230 O.2       1    UNL1    -0.2740
      7 O7          9.1250   -6.6390    9.6500 O.3       1    UNL1    -0.4851
      8 O8          3.8810    0.6530   16.2070 O.2       1    UNL1    -0.2702
      9 N9          5.9390   -1.1940    9.1190 N.3       1    UNL1    -0.1647
     10 N10         5.6800   -1.2830   11.6690 N.am      1    UNL1    -0.3139
     11 N11         2.9510    0.2680   14.1170 N.am      1    UNL1    -0.3113
     12 N12         9.3990   -8.8120   11.3220 N.ar      1    UNL1    -0.2482
     13 N13         1.7110    7.3430   14.2180 N.pl3     1    UNL1    -0.2497
     14 N14         4.0430    7.4740   14.2840 N.2       1    UNL1    -0.2884
     15 C15         7.2270   -1.0880    9.8590 C.3       1    UNL1     0.1078
     16 C16         7.5670    0.3980    9.8860 C.3       1    UNL1    -0.0260
     17 C17         6.2270    1.0860    9.6870 C.3       1    UNL1    -0.0366
     18 C18         5.5260    0.1720    8.6970 C.3       1    UNL1     0.0214
     19 C19         6.9420   -1.6330   11.2180 C.2       1    UNL1     0.2319
     20 C20         5.8880   -3.8580    9.0420 C.ar      1    UNL1     0.1242
     21 C21         5.1530   -1.7040   12.9470 C.3       1    UNL1     0.0131
     22 C22         6.7880   -4.8970    8.8060 C.ar      1    UNL1     0.0750
     23 C23         5.0360   -3.9100   10.1460 C.ar      1    UNL1    -0.0325
     24 C24         3.6290   -1.7960   12.9500 C.3       1    UNL1    -0.0217
     25 C25         6.8380   -5.9880    9.6750 C.ar      1    UNL1     0.0281
     26 C26         5.0860   -5.0010   11.0140 C.ar      1    UNL1    -0.0411
     27 C27         5.9860   -6.0390   10.7780 C.ar      1    UNL1     0.0489
     28 C28         2.9760   -1.1670   14.1790 C.3       1    UNL1     0.0133
     29 C29         7.8030   -7.1080    9.4280 C.3       1    UNL1     0.1175
     30 C30         9.5110   -6.4700   10.9550 C.ar      1    UNL1     0.1468
     31 C31         3.4130    1.0730   15.1520 C.2       1    UNL1     0.2441
     32 C32         9.6470   -7.5740   11.7920 C.ar      1    UNL1     0.1130
     33 C33        10.0470   -7.3510   13.1260 C.ar      1    UNL1     0.0069
     34 C34         9.7600   -5.1720   11.4090 C.ar      1    UNL1    -0.0178
     35 C35         3.2940    2.5390   14.9440 C.ar      1    UNL1     0.0367
     36 C36        10.1840   -8.4630   13.9690 C.ar      1    UNL1    -0.0395
     37 C37        10.2970   -6.0460   13.5830 C.ar      1    UNL1    -0.0521
     38 C38        10.1530   -4.9600   12.7250 C.ar      1    UNL1    -0.0576
     39 C39         9.5420   -9.8580   12.1680 C.ar      1    UNL1     0.0393
     40 C40         9.9290   -9.7390   13.4870 C.ar      1    UNL1    -0.0371
     41 C41        10.6030   -8.3320   15.3990 C.3       1    UNL1    -0.0390
     42 C42         3.9720    3.1510   13.8900 C.ar      1    UNL1    -0.0488
     43 C43         2.5040    3.3040   15.8030 C.ar      1    UNL1    -0.0488
     44 C44         9.2580  -11.2110   11.6070 C.3       1    UNL1    -0.0223
     45 C45         3.8600    4.5280   13.6950 C.ar      1    UNL1    -0.0463
     46 C46         2.3930    4.6800   15.6080 C.ar      1    UNL1    -0.0463
     47 C47         3.0710    5.2930   14.5540 C.ar      1    UNL1     0.0608
     48 C48         2.9540    6.7280   14.3500 C.2       1    UNL1     0.2662
     49 H1          5.1150   -0.7210   11.0910 H         1    UNL1     0.1487
     50 H2          2.5920    0.7000   13.3080 H         1    UNL1     0.1490
     51 H3          1.1400    7.4760   15.0090 H         1    UNL1     0.2883
     52 H4          1.4020    7.6440   13.3330 H         1    UNL1     0.2883
     53 H5          3.9660    8.4460   14.1460 H         1    UNL1     0.3009
     54 H6          4.9310    7.0580   14.3720 H         1    UNL1     0.3009
     55 H7          8.0500   -1.6210    9.4310 H         1    UNL1     0.0575
     56 H8          8.2440    0.6470    9.0950 H         1    UNL1     0.0286
     57 H9          8.0510    0.6930   10.7930 H         1    UNL1     0.0286
     58 H10         6.3540    2.0680    9.2820 H         1    UNL1     0.0279
     59 H11         5.6820    1.2250   10.5970 H         1    UNL1     0.0279
     60 H12         4.4640    0.2850    8.7600 H         1    UNL1     0.0444
     61 H13         5.7850    0.3860    7.6810 H         1    UNL1     0.0444
     62 H14         5.4550   -0.9980   13.6920 H         1    UNL1     0.0462
     63 H15         5.5380   -2.6820   13.1510 H         1    UNL1     0.0462
     64 H16         4.3700   -3.1420   10.3200 H         1    UNL1     0.0638
     65 H17         3.3530   -2.8300   12.9140 H         1    UNL1     0.0295
     66 H18         3.2810   -1.2500   12.0990 H         1    UNL1     0.0295
     67 H19         4.4560   -5.0390   11.8310 H         1    UNL1     0.0633
     68 H20         1.9700   -1.5250   14.2540 H         1    UNL1     0.0462
     69 H21         3.5570   -1.4450   15.0340 H         1    UNL1     0.0462
     70 H22         7.5930   -7.9160   10.0970 H         1    UNL1     0.0749
     71 H23         7.7080   -7.4510    8.4190 H         1    UNL1     0.0749
     72 H24         9.6520   -4.3720   10.7670 H         1    UNL1     0.0655
     73 H25        10.5890   -5.8920   14.5610 H         1    UNL1     0.0624
     74 H26        10.3380   -4.0030   13.0630 H         1    UNL1     0.0619
     75 H27        10.0240  -10.5680   14.0940 H         1    UNL1     0.0638
     76 H28        10.7640   -7.3000   15.6310 H         1    UNL1     0.0278
     77 H29        11.5090   -8.8790   15.5570 H         1    UNL1     0.0278
     78 H30         9.8350   -8.7240   16.0330 H         1    UNL1     0.0278
     79 H31         4.5560    2.5860   13.2540 H         1    UNL1     0.0625
     80 H32         2.0020    2.8510   16.5830 H         1    UNL1     0.0625
     81 H33         8.9740  -11.1180   10.5790 H         1    UNL1     0.0292
     82 H34         8.4600  -11.6650   12.1570 H         1    UNL1     0.0292
     83 H35        10.1340  -11.8200   11.6810 H         1    UNL1     0.0292
     84 H36         4.3620    4.9810   12.9150 H         1    UNL1     0.0626
     85 H37         1.8090    5.2460   16.2430 H         1    UNL1     0.0626
@<TRIPOS>UNITY_ATOM_ATTR
14 1
charge 1
@<TRIPOS>BOND
     1     1    22    1
     2     2    27    1
     3     3     4    2
     4     3     5    2
     5     3     9    1
     6     3    20    1
     7     6    19    2
     8     7    29    1
     9     7    30    1
    10     8    31    2
    11     9    15    1
    12     9    18    1
    13    10    19   am
    14    10    21    1
    15    11    28    1
    16    11    31   am
    17    12    32   ar
    18    12    39   ar
    19    13    48    1
    20    14    48    2
    21    15    16    1
    22    15    19    1
    23    16    17    1
    24    17    18    1
    25    20    22   ar
    26    20    23   ar
    27    21    24    1
    28    22    25   ar
    29    23    26   ar
    30    24    28    1
    31    25    27   ar
    32    25    29    1
    33    26    27   ar
    34    30    32   ar
    35    30    34   ar
    36    31    35    1
    37    32    33   ar
    38    33    36   ar
    39    33    37   ar
    40    34    38   ar
    41    35    42   ar
    42    35    43   ar
    43    36    40   ar
    44    36    41    1
    45    37    38   ar
    46    39    40   ar
    47    39    44    1
    48    42    45   ar
    49    43    46   ar
    50    45    47   ar
    51    46    47   ar
    52    47    48    1
    53    10    49    1
    54    11    50    1
    55    13    51    1
    56    13    52    1
    57    14    53    1
    58    14    54    1
    59    15    55    1
    60    16    56    1
    61    16    57    1
    62    17    58    1
    63    17    59    1
    64    18    60    1
    65    18    61    1
    66    21    62    1
    67    21    63    1
    68    23    64    1
    69    24    65    1
    70    24    66    1
    71    26    67    1
    72    28    68    1
    73    28    69    1
    74    29    70    1
    75    29    71    1
    76    34    72    1
    77    37    73    1
    78    38    74    1
    79    40    75    1
    80    41    76    1
    81    41    77    1
    82    41    78    1
    83    42    79    1
    84    43    80    1
    85    44    81    1
    86    44    82    1
    87    44    83    1
    88    45    84    1
    89    46    85    1
