#REMARK Cluster   1 of Poses:  2 Score: -8.57 kcal/mol
@<TRIPOS>MOLECULE
9895193
 91 93 0 0 0
SMALL
GASTEIGER

@<TRIPOS>ATOM
      1 S1          9.1480   -5.2760   11.4970 S.O2      1    UNL1     0.0596
      2 O2          9.9230   -4.0540   11.5980 O.2       1    UNL1    -0.1530
      3 O3          9.5440   -6.3170   10.5690 O.2       1    UNL1    -0.1530
      4 O4          4.8280   -4.5820   10.6570 O.2       1    UNL1    -0.2738
      5 O5          4.8430    2.2570   10.3360 O.3       1    UNL1    -0.4505
      6 O6          6.2330    2.1640    8.5230 O.2       1    UNL1    -0.2263
      7 N7          5.5040   -2.5470    9.7640 N.am      1    UNL1    -0.2972
      8 N8          7.5130   -4.8840   11.2280 N.3       1    UNL1    -0.1777
      9 N9          5.8550    0.2600    9.7990 N.am      1    UNL1    -0.2644
     10 N10         5.4880   -6.5470    3.0010 N.pl3     1    UNL1    -0.2497
     11 N11         6.9490   -7.8850    4.2390 N.2       1    UNL1    -0.2884
     12 C12         9.0830   -6.0140   13.1020 C.ar      1    UNL1     0.1121
     13 C13         7.0670   -4.4540    9.8910 C.3       1    UNL1     0.1089
     14 C14         9.7530   -5.4200   14.1710 C.ar      1    UNL1    -0.0179
     15 C15         8.3620   -7.1920   13.2990 C.ar      1    UNL1    -0.0179
     16 C16         4.5510   -1.7100   10.4970 C.3       1    UNL1     0.0307
     17 C17         6.1410   -1.8840    8.6180 C.3       1    UNL1     0.0307
     18 C18         5.6980   -3.8750   10.1400 C.2       1    UNL1     0.2346
     19 C19        10.5330   -4.1570   13.9990 C.3       1    UNL1    -0.0196
     20 C20         7.6340   -7.8590   12.1780 C.3       1    UNL1    -0.0196
     21 C21         5.2020   -0.4010   10.9350 C.3       1    UNL1     0.0336
     22 C22         6.7960   -0.5750    9.0500 C.3       1    UNL1     0.0336
     23 C23         8.9820   -7.1810   15.6340 C.ar      1    UNL1    -0.0441
     24 C24         6.9770   -5.6370    8.9390 C.3       1    UNL1    -0.0021
     25 C25         9.7020   -6.0030   15.4370 C.ar      1    UNL1    -0.0530
     26 C26         8.3120   -7.7750   14.5650 C.ar      1    UNL1    -0.0530
     27 C27         8.9280   -7.8050   16.9880 C.3       1    UNL1    -0.0215
     28 C28        10.0540   -3.0390   14.9430 C.3       1    UNL1    -0.0586
     29 C29        12.0470   -4.3750   14.1690 C.3       1    UNL1    -0.0586
     30 C30         8.1300   -9.2940   11.9280 C.3       1    UNL1    -0.0586
     31 C31         6.1090   -7.8600   12.3880 C.3       1    UNL1    -0.0586
     32 C32         6.6900   -5.2080    7.5200 C.ar      1    UNL1    -0.0446
     33 C33         8.1020   -6.9740   17.9870 C.3       1    UNL1    -0.0586
     34 C34        10.3300   -8.0770   17.5670 C.3       1    UNL1    -0.0586
     35 C35         5.6870    1.6080    9.4750 C.2       1    UNL1     0.4029
     36 C36         6.6150   -6.1610    6.5050 C.ar      1    UNL1    -0.0438
     37 C37         6.4990   -3.8580    7.2260 C.ar      1    UNL1    -0.0585
     38 C38         6.3490   -5.7640    5.1940 C.ar      1    UNL1     0.0611
     39 C39         6.2330   -3.4610    5.9150 C.ar      1    UNL1    -0.0607
     40 C40         6.1580   -4.4140    4.9000 C.ar      1    UNL1    -0.0470
     41 C41         5.3820    3.4030   11.0050 C.3       1    UNL1     0.0913
     42 C42         6.2710   -6.7560    4.1340 C.2       1    UNL1     0.2662
     43 C43         4.4250    3.8310   12.0970 C.3       1    UNL1    -0.0305
     44 H1          7.2820   -4.1280   11.8720 H         1    UNL1     0.1489
     45 H2          5.9140   -6.4520    2.1180 H         1    UNL1     0.2883
     46 H3          4.5080   -6.4930    3.0820 H         1    UNL1     0.2883
     47 H4          6.8980   -8.5580    3.5220 H         1    UNL1     0.3009
     48 H5          7.5060   -8.0530    5.0330 H         1    UNL1     0.3009
     49 H6          7.7420   -3.7580    9.4370 H         1    UNL1     0.0576
     50 H7          4.2120   -2.2400   11.3630 H         1    UNL1     0.0480
     51 H8          3.7280   -1.4830    9.8520 H         1    UNL1     0.0480
     52 H9          5.4000   -1.6780    7.8750 H         1    UNL1     0.0480
     53 H10         6.8950   -2.5310    8.2210 H         1    UNL1     0.0480
     54 H11        10.3520   -3.8440   12.9920 H         1    UNL1     0.0344
     55 H12         7.8510   -7.2740   11.3080 H         1    UNL1     0.0344
     56 H13         4.4510    0.2480   11.3350 H         1    UNL1     0.0481
     57 H14         5.9400   -0.6160   11.6790 H         1    UNL1     0.0481
     58 H15         7.6400   -0.7930    9.6700 H         1    UNL1     0.0481
     59 H16         7.1030   -0.0410    8.1750 H         1    UNL1     0.0481
     60 H17         6.1920   -6.2850    9.2680 H         1    UNL1     0.0334
     61 H18         7.9230   -6.1360    8.9450 H         1    UNL1     0.0334
     62 H19        10.1980   -5.5630   16.2280 H         1    UNL1     0.0624
     63 H20         7.7780   -8.6470   14.7110 H         1    UNL1     0.0624
     64 H21         8.4360   -8.7450   16.8460 H         1    UNL1     0.0343
     65 H22        10.2260   -3.3310   15.9580 H         1    UNL1     0.0235
     66 H23         9.0080   -2.8690   14.7930 H         1    UNL1     0.0235
     67 H24        10.5950   -2.1400   14.7340 H         1    UNL1     0.0235
     68 H25        12.2510   -4.6890   15.1720 H         1    UNL1     0.0235
     69 H26        12.5640   -3.4600   13.9700 H         1    UNL1     0.0235
     70 H27        12.3780   -5.1280   13.4850 H         1    UNL1     0.0235
     71 H28         7.9230   -9.8980   12.7870 H         1    UNL1     0.0235
     72 H29         9.1840   -9.2810   11.7470 H         1    UNL1     0.0235
     73 H30         7.6270   -9.7020   11.0760 H         1    UNL1     0.0235
     74 H31         5.8690   -8.4400   13.2540 H         1    UNL1     0.0235
     75 H32         5.6310   -8.2850   11.5300 H         1    UNL1     0.0235
     76 H33         5.7670   -6.8550   12.5250 H         1    UNL1     0.0235
     77 H34         8.5780   -6.0280   18.1430 H         1    UNL1     0.0235
     78 H35         8.0370   -7.4980   18.9180 H         1    UNL1     0.0235
     79 H36         7.1190   -6.8190   17.5950 H         1    UNL1     0.0235
     80 H37        10.8400   -7.1480   17.7160 H         1    UNL1     0.0235
     81 H38        10.8860   -8.6840   16.8840 H         1    UNL1     0.0235
     82 H39        10.2360   -8.5870   18.5020 H         1    UNL1     0.0235
     83 H40         6.7560   -7.1600    6.7220 H         1    UNL1     0.0629
     84 H41         6.5550   -3.1530    7.9770 H         1    UNL1     0.0620
     85 H42         6.0920   -2.4620    5.6970 H         1    UNL1     0.0618
     86 H43         5.9610   -4.1200    3.9300 H         1    UNL1     0.0626
     87 H44         5.5070    4.2010   10.3040 H         1    UNL1     0.0695
     88 H45         6.3320    3.1580   11.4320 H         1    UNL1     0.0695
     89 H46         3.4770    4.0750   11.6650 H         1    UNL1     0.0262
     90 H47         4.8190    4.6900   12.6000 H         1    UNL1     0.0262
     91 H48         4.3030    3.0330   12.7980 H         1    UNL1     0.0262
@<TRIPOS>UNITY_ATOM_ATTR
11 1
charge 1
@<TRIPOS>BOND
     1     1     2    2
     2     1     3    2
     3     1     8    1
     4     1    12    1
     5     4    18    2
     6     5    35    1
     7     5    41    1
     8     6    35    2
     9     7    16    1
    10     7    17    1
    11     7    18   am
    12     8    13    1
    13     9    21    1
    14     9    22    1
    15     9    35   am
    16    10    42    1
    17    11    42    2
    18    12    14   ar
    19    12    15   ar
    20    13    18    1
    21    13    24    1
    22    14    19    1
    23    14    25   ar
    24    15    20    1
    25    15    26   ar
    26    16    21    1
    27    17    22    1
    28    19    28    1
    29    19    29    1
    30    20    30    1
    31    20    31    1
    32    23    25   ar
    33    23    26   ar
    34    23    27    1
    35    24    32    1
    36    27    33    1
    37    27    34    1
    38    32    36   ar
    39    32    37   ar
    40    36    38   ar
    41    37    39   ar
    42    38    40   ar
    43    38    42    1
    44    39    40   ar
    45    41    43    1
    46     8    44    1
    47    10    45    1
    48    10    46    1
    49    11    47    1
    50    11    48    1
    51    13    49    1
    52    16    50    1
    53    16    51    1
    54    17    52    1
    55    17    53    1
    56    19    54    1
    57    20    55    1
    58    21    56    1
    59    21    57    1
    60    22    58    1
    61    22    59    1
    62    24    60    1
    63    24    61    1
    64    25    62    1
    65    26    63    1
    66    27    64    1
    67    28    65    1
    68    28    66    1
    69    28    67    1
    70    29    68    1
    71    29    69    1
    72    29    70    1
    73    30    71    1
    74    30    72    1
    75    30    73    1
    76    31    74    1
    77    31    75    1
    78    31    76    1
    79    33    77    1
    80    33    78    1
    81    33    79    1
    82    34    80    1
    83    34    81    1
    84    34    82    1
    85    36    83    1
    86    37    84    1
    87    39    85    1
    88    40    86    1
    89    41    87    1
    90    41    88    1
    91    43    89    1
    92    43    90    1
    93    43    91    1
