#REMARK Cluster   1 of Poses:  3 Score: -8.60 kcal/mol
@<TRIPOS>MOLECULE
9831652
 85 89 0 0 0
SMALL
GASTEIGER

@<TRIPOS>ATOM
      1 CL1         4.3020   -0.9170   12.2010 Cl        1    UNL1    -0.0811
      2 CL2         7.8040    3.0280   10.8990 Cl        1    UNL1    -0.0831
      3 S3          4.8310   -2.2820    9.3390 S.O2      1    UNL1     0.0629
      4 O4          5.0510   -3.2650   10.3840 O.2       1    UNL1    -0.1528
      5 O5          3.4840   -1.9380    8.9230 O.2       1    UNL1    -0.1528
      6 O6          8.0800   -4.0340    7.9340 O.2       1    UNL1    -0.2740
      7 O7          4.5640    2.2760   12.7300 O.3       1    UNL1    -0.4851
      8 O8          5.2600   -6.1670   12.2990 O.2       1    UNL1    -0.2702
      9 N9          5.7570   -2.6910    7.9720 N.3       1    UNL1    -0.1647
     10 N10         6.9110   -5.9940    8.3940 N.am      1    UNL1    -0.3139
     11 N11         5.7760   -8.1590   11.2280 N.am      1    UNL1    -0.3113
     12 N12         2.5440    1.9560   14.5760 N.ar      1    UNL1    -0.2482
     13 N13        -1.4500   -8.7980   11.5260 N.pl3     1    UNL1    -0.2497
     14 N14        -0.8710   -9.5810   13.6500 N.2       1    UNL1    -0.2884
     15 C15         5.7380   -4.1080    7.5130 C.3       1    UNL1     0.1078
     16 C16         5.6270   -4.0500    5.9940 C.3       1    UNL1    -0.0260
     17 C17         6.1580   -2.6720    5.6380 C.3       1    UNL1    -0.0366
     18 C18         5.6400   -1.8100    6.7780 C.3       1    UNL1     0.0214
     19 C19         7.0380   -4.6820    7.9690 C.2       1    UNL1     0.2319
     20 C20         5.6370   -0.7890    9.8350 C.ar      1    UNL1     0.1242
     21 C21         8.0270   -6.7840    8.8630 C.3       1    UNL1     0.0131
     22 C22         5.4070   -0.1950   11.0760 C.ar      1    UNL1     0.0750
     23 C23         6.5280   -0.2050    8.9360 C.ar      1    UNL1    -0.0325
     24 C24         7.5840   -8.0720    9.5520 C.3       1    UNL1    -0.0217
     25 C25         6.0690    0.9850   11.4170 C.ar      1    UNL1     0.0281
     26 C26         7.1900    0.9750    9.2770 C.ar      1    UNL1    -0.0411
     27 C27         6.9610    1.5690   10.5180 C.ar      1    UNL1     0.0489
     28 C28         7.1690   -7.8810   11.0100 C.3       1    UNL1     0.0133
     29 C29         5.8280    1.6290   12.7490 C.3       1    UNL1     0.1175
     30 C30         4.3410    3.2280   13.6920 C.ar      1    UNL1     0.1468
     31 C31         4.9220   -7.2650   11.8650 C.2       1    UNL1     0.2441
     32 C32         3.3180    3.0570   14.6200 C.ar      1    UNL1     0.1130
     33 C33         3.1260    4.0640   15.5890 C.ar      1    UNL1     0.0069
     34 C34         5.1630    4.3580   13.7070 C.ar      1    UNL1    -0.0178
     35 C35         3.5160   -7.7130   12.0370 C.ar      1    UNL1     0.0367
     36 C36         2.0960    3.8920   16.5240 C.ar      1    UNL1    -0.0395
     37 C37         3.9530    5.2000   15.6050 C.ar      1    UNL1    -0.0521
     38 C38         4.9680    5.3460   14.6650 C.ar      1    UNL1    -0.0576
     39 C39         1.5600    1.8290   15.4960 C.ar      1    UNL1     0.0393
     40 C40         1.2970    2.7580   16.4810 C.ar      1    UNL1    -0.0371
     41 C41         1.8120    4.9010   17.5920 C.3       1    UNL1    -0.0390
     42 C42         3.1840   -9.0550   11.8520 C.ar      1    UNL1    -0.0488
     43 C43         2.5290   -6.7910   12.3830 C.ar      1    UNL1    -0.0488
     44 C44         0.7270    0.5940   15.4120 C.3       1    UNL1    -0.0223
     45 C45         1.8640   -9.4750   12.0130 C.ar      1    UNL1    -0.0463
     46 C46         1.2080   -7.2110   12.5440 C.ar      1    UNL1    -0.0463
     47 C47         0.8760   -8.5530   12.3590 C.ar      1    UNL1     0.0608
     48 C48        -0.5010   -8.9910   12.5270 C.2       1    UNL1     0.2662
     49 H1          6.0180   -6.4080    8.3760 H         1    UNL1     0.1487
     50 H2          5.4110   -9.0180   10.9140 H         1    UNL1     0.1490
     51 H3         -1.1680   -8.7340   10.5850 H         1    UNL1     0.2883
     52 H4         -2.4040   -8.7260   11.7590 H         1    UNL1     0.2883
     53 H5         -1.8020   -9.8780   13.7660 H         1    UNL1     0.3009
     54 H6         -0.2160   -9.7240   14.3710 H         1    UNL1     0.3009
     55 H7          4.9360   -4.7060    7.8930 H         1    UNL1     0.0575
     56 H8          4.6090   -4.1580    5.6830 H         1    UNL1     0.0286
     57 H9          6.1680   -4.8370    5.5110 H         1    UNL1     0.0286
     58 H10         5.7710   -2.3400    4.6970 H         1    UNL1     0.0279
     59 H11         7.2220   -2.6410    5.5320 H         1    UNL1     0.0279
     60 H12         6.2390   -0.9310    6.8930 H         1    UNL1     0.0444
     61 H13         4.6410   -1.4650    6.6140 H         1    UNL1     0.0444
     62 H14         8.5920   -6.2000    9.5580 H         1    UNL1     0.0462
     63 H15         8.6120   -7.0570    8.0100 H         1    UNL1     0.0462
     64 H16         6.6980   -0.6450    8.0180 H         1    UNL1     0.0638
     65 H17         8.3960   -8.7680    9.5220 H         1    UNL1     0.0295
     66 H18         6.7210   -8.4260    9.0270 H         1    UNL1     0.0295
     67 H19         7.8500    1.4070    8.6120 H         1    UNL1     0.0633
     68 H20         7.7500   -8.5390   11.6210 H         1    UNL1     0.0462
     69 H21         7.3380   -6.8550   11.2630 H         1    UNL1     0.0462
     70 H22         5.8370    0.8820   13.5160 H         1    UNL1     0.0749
     71 H23         6.5970    2.3460   12.9470 H         1    UNL1     0.0749
     72 H24         5.9140    4.4590   13.0070 H         1    UNL1     0.0655
     73 H25         3.8050    5.9320   16.3180 H         1    UNL1     0.0624
     74 H26         5.5730    6.1810   14.6790 H         1    UNL1     0.0619
     75 H27         0.5340    2.6160   17.1620 H         1    UNL1     0.0638
     76 H28         2.5000    5.7160   17.5050 H         1    UNL1     0.0278
     77 H29         1.9210    4.4430   18.5530 H         1    UNL1     0.0278
     78 H30         0.8120    5.2650   17.4820 H         1    UNL1     0.0278
     79 H31         3.9150   -9.7370   11.5950 H         1    UNL1     0.0625
     80 H32         2.7750   -5.7980   12.5200 H         1    UNL1     0.0625
     81 H33         1.0660   -0.0110   14.5970 H         1    UNL1     0.0292
     82 H34        -0.2960    0.8650   15.2530 H         1    UNL1     0.0292
     83 H35         0.8120    0.0430   16.3250 H         1    UNL1     0.0292
     84 H36         1.6180  -10.4680   11.8760 H         1    UNL1     0.0626
     85 H37         0.4770   -6.5290   12.8000 H         1    UNL1     0.0626
@<TRIPOS>UNITY_ATOM_ATTR
14 1
charge 1
@<TRIPOS>BOND
     1     1    22    1
     2     2    27    1
     3     3     4    2
     4     3     5    2
     5     3     9    1
     6     3    20    1
     7     6    19    2
     8     7    29    1
     9     7    30    1
    10     8    31    2
    11     9    15    1
    12     9    18    1
    13    10    19   am
    14    10    21    1
    15    11    28    1
    16    11    31   am
    17    12    32   ar
    18    12    39   ar
    19    13    48    1
    20    14    48    2
    21    15    16    1
    22    15    19    1
    23    16    17    1
    24    17    18    1
    25    20    22   ar
    26    20    23   ar
    27    21    24    1
    28    22    25   ar
    29    23    26   ar
    30    24    28    1
    31    25    27   ar
    32    25    29    1
    33    26    27   ar
    34    30    32   ar
    35    30    34   ar
    36    31    35    1
    37    32    33   ar
    38    33    36   ar
    39    33    37   ar
    40    34    38   ar
    41    35    42   ar
    42    35    43   ar
    43    36    40   ar
    44    36    41    1
    45    37    38   ar
    46    39    40   ar
    47    39    44    1
    48    42    45   ar
    49    43    46   ar
    50    45    47   ar
    51    46    47   ar
    52    47    48    1
    53    10    49    1
    54    11    50    1
    55    13    51    1
    56    13    52    1
    57    14    53    1
    58    14    54    1
    59    15    55    1
    60    16    56    1
    61    16    57    1
    62    17    58    1
    63    17    59    1
    64    18    60    1
    65    18    61    1
    66    21    62    1
    67    21    63    1
    68    23    64    1
    69    24    65    1
    70    24    66    1
    71    26    67    1
    72    28    68    1
    73    28    69    1
    74    29    70    1
    75    29    71    1
    76    34    72    1
    77    37    73    1
    78    38    74    1
    79    40    75    1
    80    41    76    1
    81    41    77    1
    82    41    78    1
    83    42    79    1
    84    43    80    1
    85    44    81    1
    86    44    82    1
    87    44    83    1
    88    45    84    1
    89    46    85    1
