#REMARK Cluster  11 of Poses:  1 Score: -7.12 kcal/mol
@<TRIPOS>MOLECULE
9831652
 85 89 0 0 0
SMALL
GASTEIGER

@<TRIPOS>ATOM
      1 CL1         7.4140   -5.5560    8.4220 Cl        1    UNL1    -0.0811
      2 CL2         3.3640   -6.7070   11.8560 Cl        1    UNL1    -0.0831
      3 S3          6.4630   -2.4850    8.3870 S.O2      1    UNL1     0.0629
      4 O4          7.7360   -3.0400    7.9670 O.2       1    UNL1    -0.1528
      5 O5          5.5210   -1.9810    7.4050 O.2       1    UNL1    -0.1528
      6 O6          6.4100    1.3470    7.8440 O.2       1    UNL1    -0.2740
      7 O7          6.4190   -7.6940   11.3920 O.3       1    UNL1    -0.4851
      8 O8          8.7610    5.9420   13.5910 O.2       1    UNL1    -0.2702
      9 N9          6.7260   -1.2990    9.5770 N.3       1    UNL1    -0.1647
     10 N10         7.4920    1.5410    9.8960 N.am      1    UNL1    -0.3139
     11 N11         7.8990    4.6820   11.8450 N.am      1    UNL1    -0.3113
     12 N12         7.0490   -6.0940   13.5440 N.ar      1    UNL1    -0.2482
     13 N13         1.4320    5.6780   14.5530 N.pl3     1    UNL1    -0.2497
     14 N14         2.4470    6.1550   16.6030 N.2       1    UNL1    -0.2884
     15 C15         5.8060   -0.1280    9.6130 C.3       1    UNL1     0.1078
     16 C16         5.4930    0.1070   11.0860 C.3       1    UNL1    -0.0260
     17 C17         6.6580   -0.5370   11.8180 C.3       1    UNL1    -0.0366
     18 C18         6.9440   -1.7670   10.9730 C.3       1    UNL1     0.0214
     19 C19         6.5810    0.9950    9.0080 C.2       1    UNL1     0.2319
     20 C20         5.6330   -3.7190    9.3420 C.ar      1    UNL1     0.1242
     21 C21         8.3800    2.6270    9.5490 C.3       1    UNL1     0.0131
     22 C22         6.0430   -5.0520    9.3570 C.ar      1    UNL1     0.0750
     23 C23         4.5310   -3.3190   10.0980 C.ar      1    UNL1    -0.0325
     24 C24         9.3090    3.0140   10.6980 C.3       1    UNL1    -0.0217
     25 C25         5.3510   -5.9850   10.1290 C.ar      1    UNL1     0.0281
     26 C26         3.8390   -4.2530   10.8690 C.ar      1    UNL1    -0.0411
     27 C27         4.2490   -5.5860   10.8850 C.ar      1    UNL1     0.0489
     28 C28         9.1440    4.4600   11.1620 C.3       1    UNL1     0.0133
     29 C29         5.7870   -7.4200   10.1510 C.3       1    UNL1     0.1175
     30 C30         7.6940   -7.2180   11.5570 C.ar      1    UNL1     0.1468
     31 C31         7.8090    5.4160   13.0220 C.2       1    UNL1     0.2441
     32 C32         8.0030   -6.4100   12.6470 C.ar      1    UNL1     0.1130
     33 C33         9.3280   -5.9450   12.7750 C.ar      1    UNL1     0.0069
     34 C34         8.6580   -7.5670   10.6070 C.ar      1    UNL1    -0.0178
     35 C35         6.4530    5.5320   13.6180 C.ar      1    UNL1     0.0367
     36 C36         9.6390   -5.1310   13.8730 C.ar      1    UNL1    -0.0395
     37 C37        10.2980   -6.2950   11.8200 C.ar      1    UNL1    -0.0521
     38 C38         9.9620   -7.1040   10.7390 C.ar      1    UNL1    -0.0576
     39 C39         7.3910   -5.3060   14.5890 C.ar      1    UNL1     0.0393
     40 C40         8.6590   -4.8030   14.7980 C.ar      1    UNL1    -0.0371
     41 C41        11.0150   -4.5870   14.0980 C.3       1    UNL1    -0.0390
     42 C42         5.3220    5.3440   12.8220 C.ar      1    UNL1    -0.0488
     43 C43         6.3100    5.8300   14.9730 C.ar      1    UNL1    -0.0488
     44 C44         6.3040   -4.9790   15.5590 C.3       1    UNL1    -0.0223
     45 C45         4.0500    5.4540   13.3820 C.ar      1    UNL1    -0.0463
     46 C46         5.0370    5.9390   15.5330 C.ar      1    UNL1    -0.0463
     47 C47         3.9070    5.7510   14.7370 C.ar      1    UNL1     0.0608
     48 C48         2.5800    5.8650   15.3210 C.2       1    UNL1     0.2662
     49 H1          7.5360    1.1720   10.8070 H         1    UNL1     0.1487
     50 H2          7.0770    4.2980   11.4630 H         1    UNL1     0.1490
     51 H3          0.5750    6.0640   14.8470 H         1    UNL1     0.2883
     52 H4          1.4770    5.1600   13.7170 H         1    UNL1     0.2883
     53 H5          1.5490    6.2320   17.0000 H         1    UNL1     0.3009
     54 H6          3.2460    6.2930   17.1610 H         1    UNL1     0.3009
     55 H7          4.8850   -0.2480    9.0810 H         1    UNL1     0.0575
     56 H8          4.5690   -0.3590   11.3570 H         1    UNL1     0.0286
     57 H9          5.3810    1.1450   11.3220 H         1    UNL1     0.0286
     58 H10         6.3840   -0.8100   12.8160 H         1    UNL1     0.0279
     59 H11         7.5030    0.1110   11.9240 H         1    UNL1     0.0279
     60 H12         7.9530   -2.0980   11.1110 H         1    UNL1     0.0444
     61 H13         6.3240   -2.6000   11.2320 H         1    UNL1     0.0444
     62 H14         7.7910    3.4790    9.2810 H         1    UNL1     0.0462
     63 H15         8.9910    2.2980    8.7340 H         1    UNL1     0.0462
     64 H16         4.2270   -2.3330   10.0860 H         1    UNL1     0.0638
     65 H17        10.3200    2.8770   10.3750 H         1    UNL1     0.0295
     66 H18         9.0550    2.3890   11.5280 H         1    UNL1     0.0295
     67 H19         3.0240   -3.9570   11.4280 H         1    UNL1     0.0633
     68 H20         9.9470    4.7000   11.8280 H         1    UNL1     0.0462
     69 H21         9.1530    5.0830   10.2930 H         1    UNL1     0.0462
     70 H22         4.9340   -8.0550   10.0350 H         1    UNL1     0.0749
     71 H23         6.4720   -7.6010    9.3490 H         1    UNL1     0.0749
     72 H24         8.4020   -8.1670    9.8080 H         1    UNL1     0.0655
     73 H25        11.2650   -5.9490   11.9210 H         1    UNL1     0.0624
     74 H26        10.6760   -7.3590   10.0390 H         1    UNL1     0.0619
     75 H27         8.8700   -4.2050   15.6120 H         1    UNL1     0.0638
     76 H28        11.6620   -4.9190   13.3130 H         1    UNL1     0.0278
     77 H29        11.3870   -4.9360   15.0380 H         1    UNL1     0.0278
     78 H30        10.9790   -3.5180   14.1030 H         1    UNL1     0.0278
     79 H31         5.4280    5.1240   11.8190 H         1    UNL1     0.0625
     80 H32         7.1460    5.9690   15.5620 H         1    UNL1     0.0625
     81 H33         5.3940   -5.4470   15.2460 H         1    UNL1     0.0292
     82 H34         6.1650   -3.9190   15.5950 H         1    UNL1     0.0292
     83 H35         6.5730   -5.3370   16.5300 H         1    UNL1     0.0292
     84 H36         3.2130    5.3150   12.7930 H         1    UNL1     0.0626
     85 H37         4.9310    6.1600   16.5350 H         1    UNL1     0.0626
@<TRIPOS>UNITY_ATOM_ATTR
14 1
charge 1
@<TRIPOS>BOND
     1     1    22    1
     2     2    27    1
     3     3     4    2
     4     3     5    2
     5     3     9    1
     6     3    20    1
     7     6    19    2
     8     7    29    1
     9     7    30    1
    10     8    31    2
    11     9    15    1
    12     9    18    1
    13    10    19   am
    14    10    21    1
    15    11    28    1
    16    11    31   am
    17    12    32   ar
    18    12    39   ar
    19    13    48    1
    20    14    48    2
    21    15    16    1
    22    15    19    1
    23    16    17    1
    24    17    18    1
    25    20    22   ar
    26    20    23   ar
    27    21    24    1
    28    22    25   ar
    29    23    26   ar
    30    24    28    1
    31    25    27   ar
    32    25    29    1
    33    26    27   ar
    34    30    32   ar
    35    30    34   ar
    36    31    35    1
    37    32    33   ar
    38    33    36   ar
    39    33    37   ar
    40    34    38   ar
    41    35    42   ar
    42    35    43   ar
    43    36    40   ar
    44    36    41    1
    45    37    38   ar
    46    39    40   ar
    47    39    44    1
    48    42    45   ar
    49    43    46   ar
    50    45    47   ar
    51    46    47   ar
    52    47    48    1
    53    10    49    1
    54    11    50    1
    55    13    51    1
    56    13    52    1
    57    14    53    1
    58    14    54    1
    59    15    55    1
    60    16    56    1
    61    16    57    1
    62    17    58    1
    63    17    59    1
    64    18    60    1
    65    18    61    1
    66    21    62    1
    67    21    63    1
    68    23    64    1
    69    24    65    1
    70    24    66    1
    71    26    67    1
    72    28    68    1
    73    28    69    1
    74    29    70    1
    75    29    71    1
    76    34    72    1
    77    37    73    1
    78    38    74    1
    79    40    75    1
    80    41    76    1
    81    41    77    1
    82    41    78    1
    83    42    79    1
    84    43    80    1
    85    44    81    1
    86    44    82    1
    87    44    83    1
    88    45    84    1
    89    46    85    1
