#REMARK Cluster   2 of Poses:  1 Score: -8.21 kcal/mol
@<TRIPOS>MOLECULE
9831652
 85 89 0 0 0
SMALL
GASTEIGER

@<TRIPOS>ATOM
      1 CL1         5.7460   -8.1820    9.6950 Cl        1    UNL1    -0.0811
      2 CL2         9.8270   -8.6130   13.2560 Cl        1    UNL1    -0.0831
      3 S3          6.9870   -5.4010    8.6640 S.O2      1    UNL1     0.0629
      4 O4          8.0290   -4.6050    8.0430 O.2       1    UNL1    -0.1528
      5 O5          6.1770   -6.3040    7.8680 O.2       1    UNL1    -0.1528
      6 O6          7.0050   -2.2650   10.6090 O.2       1    UNL1    -0.2740
      7 O7          6.2600   -9.2930   12.8770 O.3       1    UNL1    -0.4851
      8 O8          8.7610    3.1920   11.3110 O.2       1    UNL1    -0.2702
      9 N9          5.9710   -4.3900    9.5800 N.3       1    UNL1    -0.1647
     10 N10         6.2450   -0.8420    8.9310 N.am      1    UNL1    -0.3139
     11 N11         7.7680    3.5860    9.2520 N.am      1    UNL1    -0.3113
     12 N12         4.1930   -7.4730   12.9650 N.ar      1    UNL1    -0.2482
     13 N13        14.6360    6.1340    8.4740 N.pl3     1    UNL1    -0.2497
     14 N14        13.2550    8.0130    8.3260 N.2       1    UNL1    -0.2884
     15 C15         5.5120   -3.1160    8.9610 C.3       1    UNL1     0.1078
     16 C16         4.0340   -2.9920    9.3160 C.3       1    UNL1    -0.0260
     17 C17         3.8790   -3.8600   10.5540 C.3       1    UNL1    -0.0366
     18 C18         4.8120   -5.0240   10.2650 C.3       1    UNL1     0.0214
     19 C19         6.3420   -2.0520    9.5980 C.2       1    UNL1     0.2319
     20 C20         7.7390   -6.3500    9.9520 C.ar      1    UNL1     0.1242
     21 C21         6.9340    0.3540    9.3590 C.3       1    UNL1     0.0131
     22 C22         7.2010   -7.5560   10.4010 C.ar      1    UNL1     0.0750
     23 C23         8.9110   -5.8530   10.5230 C.ar      1    UNL1    -0.0325
     24 C24         6.4080    1.6120    8.6710 C.3       1    UNL1    -0.0217
     25 C25         7.8350   -8.2650   11.4220 C.ar      1    UNL1     0.0281
     26 C26         9.5450   -6.5620   11.5430 C.ar      1    UNL1    -0.0411
     27 C27         9.0070   -7.7680   11.9920 C.ar      1    UNL1     0.0489
     28 C28         6.5440    2.8780    9.5130 C.3       1    UNL1     0.0133
     29 C29         7.2630   -9.5620   11.9100 C.3       1    UNL1     0.1175
     30 C30         4.9800   -9.6750   12.5650 C.ar      1    UNL1     0.1468
     31 C31         8.7920    3.6860   10.1870 C.2       1    UNL1     0.2441
     32 C32         3.9430   -8.7480   12.6130 C.ar      1    UNL1     0.1130
     33 C33         2.6440   -9.1890   12.2840 C.ar      1    UNL1     0.0069
     34 C34         4.7570  -11.0070   12.2040 C.ar      1    UNL1    -0.0178
     35 C35         9.9810    4.4740    9.7730 C.ar      1    UNL1     0.0367
     36 C36         1.5990   -8.2560   12.3320 C.ar      1    UNL1    -0.0395
     37 C37         2.4190  -10.5270   11.9210 C.ar      1    UNL1    -0.0521
     38 C38         3.4750  -11.4330   11.8820 C.ar      1    UNL1    -0.0576
     39 C39         3.1570   -6.6040   12.9990 C.ar      1    UNL1     0.0393
     40 C40         1.8540   -6.9410   12.6950 C.ar      1    UNL1    -0.0371
     41 C41         0.1870   -8.6220   12.0010 C.3       1    UNL1    -0.0390
     42 C42        10.2800    4.6260    8.4180 C.ar      1    UNL1    -0.0488
     43 C43        10.7990    5.0610   10.7380 C.ar      1    UNL1    -0.0488
     44 C44         3.4780   -5.2010   13.3950 C.3       1    UNL1    -0.0223
     45 C45        11.3970    5.3660    8.0300 C.ar      1    UNL1    -0.0463
     46 C46        11.9160    5.8010   10.3490 C.ar      1    UNL1    -0.0463
     47 C47        12.2150    5.9530    8.9950 C.ar      1    UNL1     0.0608
     48 C48        13.3790    6.7250    8.5900 C.2       1    UNL1     0.2662
     49 H1          5.6790   -0.7940    8.1270 H         1    UNL1     0.1487
     50 H2          7.8850    4.0170    8.3750 H         1    UNL1     0.1490
     51 H3         15.1430    5.8930    9.2830 H         1    UNL1     0.2883
     52 H4         15.0170    5.9570    7.5840 H         1    UNL1     0.2883
     53 H5         14.0430    8.5370    8.0520 H         1    UNL1     0.3009
     54 H6         12.3770    8.4500    8.4050 H         1    UNL1     0.3009
     55 H7          5.6150   -3.0550    7.8980 H         1    UNL1     0.0575
     56 H8          3.4200   -3.3550    8.5190 H         1    UNL1     0.0286
     57 H9          3.7340   -1.9790    9.4830 H         1    UNL1     0.0286
     58 H10         2.8690   -4.1930   10.6680 H         1    UNL1     0.0279
     59 H11         4.1110   -3.3460   11.4640 H         1    UNL1     0.0279
     60 H12         5.1190   -5.5000   11.1730 H         1    UNL1     0.0444
     61 H13         4.3490   -5.7870    9.6750 H         1    UNL1     0.0444
     62 H14         7.9750    0.2490    9.1330 H         1    UNL1     0.0462
     63 H15         6.7680    0.4660   10.4100 H         1    UNL1     0.0462
     64 H16         9.3080   -4.9610   10.1900 H         1    UNL1     0.0638
     65 H17         5.3720    1.4650    8.4470 H         1    UNL1     0.0295
     66 H18         7.0000    1.7570    7.7920 H         1    UNL1     0.0295
     67 H19        10.4120   -6.1950   11.9650 H         1    UNL1     0.0633
     68 H20         5.7210    3.5250    9.2950 H         1    UNL1     0.0462
     69 H21         6.5530    2.5840   10.5420 H         1    UNL1     0.0462
     70 H22         6.8350  -10.0970   11.0880 H         1    UNL1     0.0749
     71 H23         8.0380  -10.1550   12.3490 H         1    UNL1     0.0749
     72 H24         5.5440  -11.6730   12.1770 H         1    UNL1     0.0655
     73 H25         1.4650  -10.8410   11.6820 H         1    UNL1     0.0624
     74 H26         3.3060  -12.4160   11.6150 H         1    UNL1     0.0619
     75 H27         1.0970   -6.2410   12.7350 H         1    UNL1     0.0638
     76 H28         0.1390   -9.6590   11.7410 H         1    UNL1     0.0278
     77 H29        -0.1510   -8.0320   11.1750 H         1    UNL1     0.0278
     78 H30        -0.4380   -8.4390   12.8500 H         1    UNL1     0.0278
     79 H31         9.6740    4.1920    7.7040 H         1    UNL1     0.0625
     80 H32        10.5780    4.9490   11.7390 H         1    UNL1     0.0625
     81 H33         4.5260   -5.1180   13.5940 H         1    UNL1     0.0292
     82 H34         2.9260   -4.9440   14.2740 H         1    UNL1     0.0292
     83 H35         3.2120   -4.5370   12.6000 H         1    UNL1     0.0292
     84 H36        11.6180    5.4780    7.0280 H         1    UNL1     0.0626
     85 H37        12.5210    6.2350   11.0630 H         1    UNL1     0.0626
@<TRIPOS>UNITY_ATOM_ATTR
14 1
charge 1
@<TRIPOS>BOND
     1     1    22    1
     2     2    27    1
     3     3     4    2
     4     3     5    2
     5     3     9    1
     6     3    20    1
     7     6    19    2
     8     7    29    1
     9     7    30    1
    10     8    31    2
    11     9    15    1
    12     9    18    1
    13    10    19   am
    14    10    21    1
    15    11    28    1
    16    11    31   am
    17    12    32   ar
    18    12    39   ar
    19    13    48    1
    20    14    48    2
    21    15    16    1
    22    15    19    1
    23    16    17    1
    24    17    18    1
    25    20    22   ar
    26    20    23   ar
    27    21    24    1
    28    22    25   ar
    29    23    26   ar
    30    24    28    1
    31    25    27   ar
    32    25    29    1
    33    26    27   ar
    34    30    32   ar
    35    30    34   ar
    36    31    35    1
    37    32    33   ar
    38    33    36   ar
    39    33    37   ar
    40    34    38   ar
    41    35    42   ar
    42    35    43   ar
    43    36    40   ar
    44    36    41    1
    45    37    38   ar
    46    39    40   ar
    47    39    44    1
    48    42    45   ar
    49    43    46   ar
    50    45    47   ar
    51    46    47   ar
    52    47    48    1
    53    10    49    1
    54    11    50    1
    55    13    51    1
    56    13    52    1
    57    14    53    1
    58    14    54    1
    59    15    55    1
    60    16    56    1
    61    16    57    1
    62    17    58    1
    63    17    59    1
    64    18    60    1
    65    18    61    1
    66    21    62    1
    67    21    63    1
    68    23    64    1
    69    24    65    1
    70    24    66    1
    71    26    67    1
    72    28    68    1
    73    28    69    1
    74    29    70    1
    75    29    71    1
    76    34    72    1
    77    37    73    1
    78    38    74    1
    79    40    75    1
    80    41    76    1
    81    41    77    1
    82    41    78    1
    83    42    79    1
    84    43    80    1
    85    44    81    1
    86    44    82    1
    87    44    83    1
    88    45    84    1
    89    46    85    1
