#REMARK Cluster  13 of Poses:  1 Score: -6.77 kcal/mol
@<TRIPOS>MOLECULE
9895193
 91 93 0 0 0
SMALL
GASTEIGER

@<TRIPOS>ATOM
      1 S1          4.0590   -3.1510   11.6670 S.O2      1    UNL1     0.0596
      2 O2          4.2470   -3.9660   10.4820 O.2       1    UNL1    -0.1530
      3 O3          2.9750   -2.1890   11.7260 O.2       1    UNL1    -0.1530
      4 O4          8.0850   -2.9730   11.0010 O.2       1    UNL1    -0.2738
      5 O5          5.4690   -5.4830    5.1940 O.3       1    UNL1    -0.4505
      6 O6          4.6560   -3.4120    4.6700 O.2       1    UNL1    -0.2263
      7 N7          6.8790   -2.8020    9.0230 N.am      1    UNL1    -0.2972
      8 N8          5.5210   -2.3650   12.0460 N.3       1    UNL1    -0.1777
      9 N9          5.4610   -3.8400    6.8070 N.am      1    UNL1    -0.2644
     10 N10         9.4900    4.5870    9.0500 N.pl3     1    UNL1    -0.2497
     11 N11        10.4390    2.4520    9.0080 N.2       1    UNL1    -0.2884
     12 C12         3.8630   -4.2340   13.0500 C.ar      1    UNL1     0.1121
     13 C13         6.2000   -1.5370   11.0320 C.3       1    UNL1     0.1089
     14 C14         3.7540   -5.6100   12.8480 C.ar      1    UNL1    -0.0179
     15 C15         3.8160   -3.7130   14.3430 C.ar      1    UNL1    -0.0179
     16 C16         7.2450   -4.1140    8.4830 C.3       1    UNL1     0.0307
     17 C17         6.3000   -1.8780    8.0390 C.3       1    UNL1     0.0307
     18 C18         7.1440   -2.5010   10.3580 C.2       1    UNL1     0.2346
     19 C19         3.8030   -6.2050   11.4780 C.3       1    UNL1    -0.0196
     20 C20         3.9270   -2.2450   14.5980 C.3       1    UNL1    -0.0196
     21 C21         6.0560   -4.7640    7.7810 C.3       1    UNL1     0.0336
     22 C22         5.1080   -2.5210    7.3340 C.3       1    UNL1     0.0336
     23 C23         3.5510   -5.9440   15.2320 C.ar      1    UNL1    -0.0441
     24 C24         6.9760   -0.4030   11.6830 C.3       1    UNL1    -0.0021
     25 C25         3.5980   -6.4650   13.9390 C.ar      1    UNL1    -0.0530
     26 C26         3.6590   -4.5680   15.4340 C.ar      1    UNL1    -0.0530
     27 C27         3.3830   -6.8570   16.3990 C.3       1    UNL1    -0.0215
     28 C28         5.1080   -5.8620   10.7360 C.3       1    UNL1    -0.0586
     29 C29         3.5930   -7.7290   11.4930 C.3       1    UNL1    -0.0586
     30 C30         2.7350   -1.6980   15.4050 C.3       1    UNL1    -0.0586
     31 C31         5.2480   -1.8690   15.2930 C.3       1    UNL1    -0.0586
     32 C32         6.9550    0.8550   10.8500 C.ar      1    UNL1    -0.0446
     33 C33         2.0720   -6.5980   17.1650 C.3       1    UNL1    -0.0586
     34 C34         4.5760   -6.7970   17.3710 C.3       1    UNL1    -0.0586
     35 C35         5.1550   -4.1830    5.4880 C.2       1    UNL1     0.4029
     36 C36         8.1530    1.4390   10.4370 C.ar      1    UNL1    -0.0438
     37 C37         5.7380    1.4340   10.4930 C.ar      1    UNL1    -0.0585
     38 C38         8.1330    2.6010    9.6660 C.ar      1    UNL1     0.0611
     39 C39         5.7180    2.5970    9.7220 C.ar      1    UNL1    -0.0607
     40 C40         6.9150    3.1800    9.3090 C.ar      1    UNL1    -0.0470
     41 C41         5.3730   -5.8600    3.8160 C.3       1    UNL1     0.0913
     42 C42         9.3810    3.2100    9.2350 C.2       1    UNL1     0.2662
     43 C43         6.1100   -7.1660    3.6090 C.3       1    UNL1    -0.0305
     44 H1          6.1820   -3.0900   12.3230 H         1    UNL1     0.1489
     45 H2         10.1400    5.1050    9.5780 H         1    UNL1     0.2883
     46 H3          8.9170    5.0420    8.3910 H         1    UNL1     0.2883
     47 H4         11.2850    2.8630    8.7160 H         1    UNL1     0.3009
     48 H5         10.3820    1.4770    9.1300 H         1    UNL1     0.3009
     49 H6          5.5140   -1.0760   10.3520 H         1    UNL1     0.0576
     50 H7          7.5670   -4.7460    9.2840 H         1    UNL1     0.0480
     51 H8          8.0330   -3.9830    7.7710 H         1    UNL1     0.0480
     52 H9          7.0440   -1.6260    7.3130 H         1    UNL1     0.0480
     53 H10         5.9660   -0.9980    8.5480 H         1    UNL1     0.0480
     54 H11         2.9890   -5.7600   10.9440 H         1    UNL1     0.0344
     55 H12         3.9150   -1.7850   13.6320 H         1    UNL1     0.0344
     56 H13         6.3870   -5.6450    7.2720 H         1    UNL1     0.0481
     57 H14         5.3180   -5.0130    8.5140 H         1    UNL1     0.0481
     58 H15         4.3040   -2.6260    8.0320 H         1    UNL1     0.0481
     59 H16         4.8170   -1.8940    6.5180 H         1    UNL1     0.0481
     60 H17         7.9920   -0.7120   11.8150 H         1    UNL1     0.0334
     61 H18         6.5100   -0.1830   12.6210 H         1    UNL1     0.0334
     62 H19         3.5170   -7.4830   13.7900 H         1    UNL1     0.0624
     63 H20         3.6240   -4.1820   16.3910 H         1    UNL1     0.0624
     64 H21         3.3390   -7.8420   15.9830 H         1    UNL1     0.0343
     65 H22         5.9370   -6.2970   11.2540 H         1    UNL1     0.0235
     66 H23         5.2280   -4.7990   10.6990 H         1    UNL1     0.0235
     67 H24         5.0650   -6.2510    9.7410 H         1    UNL1     0.0235
     68 H25         4.3970   -8.1950   12.0230 H         1    UNL1     0.0235
     69 H26         3.5680   -8.0960   10.4880 H         1    UNL1     0.0235
     70 H27         2.6670   -7.9570   11.9780 H         1    UNL1     0.0235
     71 H28         2.7270   -2.1460   16.3770 H         1    UNL1     0.0235
     72 H29         1.8230   -1.9330   14.8970 H         1    UNL1     0.0235
     73 H30         2.8270   -0.6370   15.5010 H         1    UNL1     0.0235
     74 H31         5.2810   -2.3190   16.2630 H         1    UNL1     0.0235
     75 H32         5.3090   -0.8060   15.3910 H         1    UNL1     0.0235
     76 H33         6.0710   -2.2220   14.7070 H         1    UNL1     0.0235
     77 H34         2.0950   -5.6170   17.5900 H         1    UNL1     0.0235
     78 H35         1.9660   -7.3220   17.9460 H         1    UNL1     0.0235
     79 H36         1.2440   -6.6770   16.4920 H         1    UNL1     0.0235
     80 H37         4.6390   -5.8180   17.7990 H         1    UNL1     0.0235
     81 H38         5.4800   -7.0120   16.8400 H         1    UNL1     0.0235
     82 H39         4.4390   -7.5180   18.1490 H         1    UNL1     0.0235
     83 H40         9.0540    1.0100   10.7010 H         1    UNL1     0.0629
     84 H41         4.8520    1.0030   10.7980 H         1    UNL1     0.0620
     85 H42         4.8170    3.0250    9.4580 H         1    UNL1     0.0618
     86 H43         6.9010    4.0400    8.7390 H         1    UNL1     0.0626
     87 H44         5.8120   -5.1000    3.2050 H         1    UNL1     0.0695
     88 H45         4.3440   -5.9790    3.5440 H         1    UNL1     0.0695
     89 H46         7.1370   -7.0430    3.8820 H         1    UNL1     0.0262
     90 H47         6.0460   -7.4530    2.5800 H         1    UNL1     0.0262
     91 H48         5.6680   -7.9260    4.2190 H         1    UNL1     0.0262
@<TRIPOS>UNITY_ATOM_ATTR
11 1
charge 1
@<TRIPOS>BOND
     1     1     2    2
     2     1     3    2
     3     1     8    1
     4     1    12    1
     5     4    18    2
     6     5    35    1
     7     5    41    1
     8     6    35    2
     9     7    16    1
    10     7    17    1
    11     7    18   am
    12     8    13    1
    13     9    21    1
    14     9    22    1
    15     9    35   am
    16    10    42    1
    17    11    42    2
    18    12    14   ar
    19    12    15   ar
    20    13    18    1
    21    13    24    1
    22    14    19    1
    23    14    25   ar
    24    15    20    1
    25    15    26   ar
    26    16    21    1
    27    17    22    1
    28    19    28    1
    29    19    29    1
    30    20    30    1
    31    20    31    1
    32    23    25   ar
    33    23    26   ar
    34    23    27    1
    35    24    32    1
    36    27    33    1
    37    27    34    1
    38    32    36   ar
    39    32    37   ar
    40    36    38   ar
    41    37    39   ar
    42    38    40   ar
    43    38    42    1
    44    39    40   ar
    45    41    43    1
    46     8    44    1
    47    10    45    1
    48    10    46    1
    49    11    47    1
    50    11    48    1
    51    13    49    1
    52    16    50    1
    53    16    51    1
    54    17    52    1
    55    17    53    1
    56    19    54    1
    57    20    55    1
    58    21    56    1
    59    21    57    1
    60    22    58    1
    61    22    59    1
    62    24    60    1
    63    24    61    1
    64    25    62    1
    65    26    63    1
    66    27    64    1
    67    28    65    1
    68    28    66    1
    69    28    67    1
    70    29    68    1
    71    29    69    1
    72    29    70    1
    73    30    71    1
    74    30    72    1
    75    30    73    1
    76    31    74    1
    77    31    75    1
    78    31    76    1
    79    33    77    1
    80    33    78    1
    81    33    79    1
    82    34    80    1
    83    34    81    1
    84    34    82    1
    85    36    83    1
    86    37    84    1
    87    39    85    1
    88    40    86    1
    89    41    87    1
    90    41    88    1
    91    43    89    1
    92    43    90    1
    93    43    91    1
