#REMARK Cluster   5 of Poses:  2 Score: -7.98 kcal/mol
@<TRIPOS>MOLECULE
9895193
 91 93 0 0 0
SMALL
GASTEIGER

@<TRIPOS>ATOM
      1 S1          7.7780   -6.0730   10.2320 S.O2      1    UNL1     0.0596
      2 O2          8.9160   -5.2640    9.8400 O.2       1    UNL1    -0.1530
      3 O3          7.6030   -7.4030    9.6800 O.2       1    UNL1    -0.1530
      4 O4          6.0710   -3.5870   11.8990 O.2       1    UNL1    -0.2738
      5 O5          9.1890    2.4850   11.3820 O.3       1    UNL1    -0.4505
      6 O6          8.2810    2.7700    9.3030 O.2       1    UNL1    -0.2263
      7 N7          6.6420   -1.6360   10.7760 N.am      1    UNL1    -0.2972
      8 N8          6.3470   -5.1810    9.9960 N.3       1    UNL1    -0.1777
      9 N9          8.1870    0.6930   10.3400 N.am      1    UNL1    -0.2644
     10 N10         6.7540   -7.0790    3.8510 N.pl3     1    UNL1    -0.2497
     11 N11         6.7100   -7.6340    6.1210 N.2       1    UNL1    -0.2884
     12 C12         7.8100   -6.2450   11.9910 C.ar      1    UNL1     0.1121
     13 C13         6.4160   -3.7740    9.5620 C.3       1    UNL1     0.1089
     14 C14         8.8960   -5.7600   12.7190 C.ar      1    UNL1    -0.0179
     15 C15         6.7500   -6.8670   12.6500 C.ar      1    UNL1    -0.0179
     16 C16         7.2500   -0.9490   11.9190 C.3       1    UNL1     0.0307
     17 C17         6.3280   -0.7630    9.6370 C.3       1    UNL1     0.0307
     18 C18         6.3580   -2.9980   10.8530 C.2       1    UNL1     0.2346
     19 C19        10.0490   -5.0860   12.0470 C.3       1    UNL1    -0.0196
     20 C20         5.5710   -7.4010   11.9040 C.3       1    UNL1    -0.0196
     21 C21         8.4890   -0.1700   11.4880 C.3       1    UNL1     0.0336
     22 C22         7.5640    0.0180    9.2000 C.3       1    UNL1     0.0336
     23 C23         7.8630   -6.5190   14.7660 C.ar      1    UNL1    -0.0441
     24 C24         5.2330   -3.4170    8.6750 C.3       1    UNL1    -0.0021
     25 C25         8.9230   -5.8970   14.1070 C.ar      1    UNL1    -0.0530
     26 C26         6.7760   -7.0040   14.0380 C.ar      1    UNL1    -0.0530
     27 C27         7.8910   -6.6670   16.2500 C.3       1    UNL1    -0.0215
     28 C28        10.2740   -3.6540   12.5660 C.3       1    UNL1    -0.0586
     29 C29        11.3510   -5.8970   12.1640 C.3       1    UNL1    -0.0586
     30 C30         5.3630   -8.9090   12.1360 C.3       1    UNL1    -0.0586
     31 C31         4.2760   -6.6360   12.2300 C.3       1    UNL1    -0.0586
     32 C32         5.4770   -3.7680    7.2280 C.ar      1    UNL1    -0.0446
     33 C33         8.0020   -5.3120   16.9750 C.3       1    UNL1    -0.0586
     34 C34         9.0130   -7.6080   16.7270 C.3       1    UNL1    -0.0586
     35 C35         8.5320    2.0440   10.2640 C.2       1    UNL1     0.4029
     36 C36         5.8830   -5.0560    6.8810 C.ar      1    UNL1    -0.0438
     37 C37         5.2960   -2.8030    6.2370 C.ar      1    UNL1    -0.0585
     38 C38         6.1080   -5.3800    5.5430 C.ar      1    UNL1     0.0611
     39 C39         5.5210   -3.1270    4.8990 C.ar      1    UNL1    -0.0607
     40 C40         5.9270   -4.4150    4.5520 C.ar      1    UNL1    -0.0470
     41 C41         9.9920    3.6610   11.2200 C.3       1    UNL1     0.0913
     42 C42         6.5320   -6.7230    5.1800 C.2       1    UNL1     0.2662
     43 C43         9.1680    4.8750   11.5910 C.3       1    UNL1    -0.0305
     44 H1          5.8450   -5.1900   10.8840 H         1    UNL1     0.1489
     45 H2          7.0640   -6.4040    3.2050 H         1    UNL1     0.2883
     46 H3          6.6000   -8.0060    3.5580 H         1    UNL1     0.2883
     47 H4          6.9970   -8.5430    5.8770 H         1    UNL1     0.3009
     48 H5          6.5560   -7.4030    7.0650 H         1    UNL1     0.3009
     49 H6          7.2930   -3.5650    8.9850 H         1    UNL1     0.0576
     50 H7          7.5290   -1.6730   12.6550 H         1    UNL1     0.0480
     51 H8          6.5370   -0.2620   12.3230 H         1    UNL1     0.0480
     52 H9          5.5600   -0.0740    9.9240 H         1    UNL1     0.0480
     53 H10         5.9960   -1.3680    8.8200 H         1    UNL1     0.0480
     54 H11         9.7830   -5.0280   11.0120 H         1    UNL1     0.0344
     55 H12         5.7960   -7.2510   10.8680 H         1    UNL1     0.0344
     56 H13         8.8240    0.4360   12.3040 H         1    UNL1     0.0481
     57 H14         9.2520   -0.8660   11.2050 H         1    UNL1     0.0481
     58 H15         8.2700   -0.6580    8.7650 H         1    UNL1     0.0481
     59 H16         7.2660    0.7580    8.4870 H         1    UNL1     0.0481
     60 H17         5.0520   -2.3650    8.7490 H         1    UNL1     0.0334
     61 H18         4.3890   -3.9820    9.0120 H         1    UNL1     0.0334
     62 H19         9.7260   -5.5380   14.6460 H         1    UNL1     0.0624
     63 H20         5.9920   -7.4650   14.5260 H         1    UNL1     0.0624
     64 H21         6.9510   -7.1080   16.5090 H         1    UNL1     0.0343
     65 H22        10.5410   -3.6880   13.6020 H         1    UNL1     0.0235
     66 H23         9.3740   -3.0870   12.4480 H         1    UNL1     0.0235
     67 H24        11.0620   -3.1930   12.0090 H         1    UNL1     0.0235
     68 H25        11.6370   -5.9680   13.1930 H         1    UNL1     0.0235
     69 H26        12.1270   -5.4090   11.6120 H         1    UNL1     0.0235
     70 H27        11.1970   -6.8800   11.7690 H         1    UNL1     0.0235
     71 H28         5.1370   -9.0820   13.1670 H         1    UNL1     0.0235
     72 H29         6.2560   -9.4360   11.8730 H         1    UNL1     0.0235
     73 H30         4.5530   -9.2550   11.5290 H         1    UNL1     0.0235
     74 H31         4.0310   -6.7730   13.2620 H         1    UNL1     0.0235
     75 H32         3.4780   -7.0100   11.6220 H         1    UNL1     0.0235
     76 H33         4.4170   -5.5940   12.0320 H         1    UNL1     0.0235
     77 H34         8.9370   -4.8520   16.7290 H         1    UNL1     0.0235
     78 H35         7.9480   -5.4670   18.0320 H         1    UNL1     0.0235
     79 H36         7.2000   -4.6750   16.6660 H         1    UNL1     0.0235
     80 H37         9.9640   -7.1850   16.4780 H         1    UNL1     0.0235
     81 H38         8.9090   -8.5590   16.2470 H         1    UNL1     0.0235
     82 H39         8.9460   -7.7350   17.7870 H         1    UNL1     0.0235
     83 H40         6.0170   -5.7700    7.6140 H         1    UNL1     0.0629
     84 H41         4.9950   -1.8500    6.4940 H         1    UNL1     0.0620
     85 H42         5.3870   -2.4130    4.1660 H         1    UNL1     0.0618
     86 H43         6.0930   -4.6550    3.5620 H         1    UNL1     0.0626
     87 H44        10.3100    3.7400   10.2020 H         1    UNL1     0.0695
     88 H45        10.8520    3.6010   11.8530 H         1    UNL1     0.0695
     89 H46         8.3090    4.9310   10.9550 H         1    UNL1     0.0262
     90 H47         9.7590    5.7580   11.4690 H         1    UNL1     0.0262
     91 H48         8.8530    4.7950   12.6100 H         1    UNL1     0.0262
@<TRIPOS>UNITY_ATOM_ATTR
11 1
charge 1
@<TRIPOS>BOND
     1     1     2    2
     2     1     3    2
     3     1     8    1
     4     1    12    1
     5     4    18    2
     6     5    35    1
     7     5    41    1
     8     6    35    2
     9     7    16    1
    10     7    17    1
    11     7    18   am
    12     8    13    1
    13     9    21    1
    14     9    22    1
    15     9    35   am
    16    10    42    1
    17    11    42    2
    18    12    14   ar
    19    12    15   ar
    20    13    18    1
    21    13    24    1
    22    14    19    1
    23    14    25   ar
    24    15    20    1
    25    15    26   ar
    26    16    21    1
    27    17    22    1
    28    19    28    1
    29    19    29    1
    30    20    30    1
    31    20    31    1
    32    23    25   ar
    33    23    26   ar
    34    23    27    1
    35    24    32    1
    36    27    33    1
    37    27    34    1
    38    32    36   ar
    39    32    37   ar
    40    36    38   ar
    41    37    39   ar
    42    38    40   ar
    43    38    42    1
    44    39    40   ar
    45    41    43    1
    46     8    44    1
    47    10    45    1
    48    10    46    1
    49    11    47    1
    50    11    48    1
    51    13    49    1
    52    16    50    1
    53    16    51    1
    54    17    52    1
    55    17    53    1
    56    19    54    1
    57    20    55    1
    58    21    56    1
    59    21    57    1
    60    22    58    1
    61    22    59    1
    62    24    60    1
    63    24    61    1
    64    25    62    1
    65    26    63    1
    66    27    64    1
    67    28    65    1
    68    28    66    1
    69    28    67    1
    70    29    68    1
    71    29    69    1
    72    29    70    1
    73    30    71    1
    74    30    72    1
    75    30    73    1
    76    31    74    1
    77    31    75    1
    78    31    76    1
    79    33    77    1
    80    33    78    1
    81    33    79    1
    82    34    80    1
    83    34    81    1
    84    34    82    1
    85    36    83    1
    86    37    84    1
    87    39    85    1
    88    40    86    1
    89    41    87    1
    90    41    88    1
    91    43    89    1
    92    43    90    1
    93    43    91    1
