#REMARK Cluster  15 of Poses:  1 Score: -6.85 kcal/mol
@<TRIPOS>MOLECULE
9831652
 85 89 0 0 0
SMALL
GASTEIGER

@<TRIPOS>ATOM
      1 CL1         8.9660   -1.9880   12.0000 Cl        1    UNL1    -0.0811
      2 CL2         4.3460   -3.5680    9.6170 Cl        1    UNL1    -0.0831
      3 S3          8.7020    0.8640   10.5390 S.O2      1    UNL1     0.0629
      4 O4          9.9610    0.2360   10.8950 O.2       1    UNL1    -0.1528
      5 O5          8.6180    1.7420    9.3870 O.2       1    UNL1    -0.1528
      6 O6          6.8910    3.7710   10.7980 O.2       1    UNL1    -0.2740
      7 O7          7.0580   -4.9670   10.4450 O.3       1    UNL1    -0.4851
      8 O8          4.0130    4.4820   16.3760 O.2       1    UNL1    -0.2702
      9 N9          8.0560    1.6530   11.9000 N.3       1    UNL1    -0.1647
     10 N10         5.1710    3.6510   12.3630 N.am      1    UNL1    -0.3139
     11 N11         2.6020    4.7340   14.5530 N.am      1    UNL1    -0.3113
     12 N12         5.6810   -7.2150   11.2450 N.ar      1    UNL1    -0.2482
     13 N13        -0.3890   -1.4630   16.2000 N.pl3     1    UNL1    -0.2497
     14 N14         0.5650   -1.2850   18.3260 N.2       1    UNL1    -0.2884
     15 C15         6.5750    1.7490   12.0150 C.3       1    UNL1     0.1078
     16 C16         6.2520    1.4420   13.4730 C.3       1    UNL1    -0.0260
     17 C17         7.5440    1.7540   14.2100 C.3       1    UNL1    -0.0366
     18 C18         8.6080    1.2830   13.2320 C.3       1    UNL1     0.0214
     19 C19         6.2440    3.1550   11.6420 C.2       1    UNL1     0.2319
     20 C20         7.5100   -0.4230   10.3200 C.ar      1    UNL1     0.1242
     21 C21         4.6670    4.9960   12.2050 C.3       1    UNL1     0.0131
     22 C22         7.6240   -1.6610   10.9520 C.ar      1    UNL1     0.0750
     23 C23         6.4270   -0.1650    9.4800 C.ar      1    UNL1    -0.0325
     24 C24         4.6000    5.7550   13.5280 C.3       1    UNL1    -0.0217
     25 C25         6.6540   -2.6420   10.7430 C.ar      1    UNL1     0.0281
     26 C26         5.4570   -1.1460    9.2710 C.ar      1    UNL1    -0.0411
     27 C27         5.5710   -2.3840    9.9030 C.ar      1    UNL1     0.0489
     28 C28         3.1800    5.9520   14.0550 C.3       1    UNL1     0.0133
     29 C29         6.7690   -3.9750   11.4190 C.3       1    UNL1     0.1175
     30 C30         7.7320   -6.0810   10.8760 C.ar      1    UNL1     0.1468
     31 C31         3.0740    4.0890   15.6900 C.2       1    UNL1     0.2441
     32 C32         7.0270   -7.2120   11.2780 C.ar      1    UNL1     0.1130
     33 C33         7.7640   -8.3330   11.7130 C.ar      1    UNL1     0.0069
     34 C34         9.1280   -6.0420   10.8960 C.ar      1    UNL1    -0.0178
     35 C35         2.3850    2.8250   16.0590 C.ar      1    UNL1     0.0367
     36 C36         7.0540   -9.4720   12.1180 C.ar      1    UNL1    -0.0395
     37 C37         9.1680   -8.2950   11.7340 C.ar      1    UNL1    -0.0521
     38 C38         9.8480   -7.1500   11.3260 C.ar      1    UNL1    -0.0576
     39 C39         5.0340   -8.3340   11.6450 C.ar      1    UNL1     0.0393
     40 C40         5.6670   -9.4780   12.0860 C.ar      1    UNL1    -0.0371
     41 C41         7.7430  -10.7120   12.5950 C.3       1    UNL1    -0.0390
     42 C42         1.4970    2.8020   17.1350 C.ar      1    UNL1    -0.0488
     43 C43         2.6260    1.6610   15.3290 C.ar      1    UNL1    -0.0488
     44 C44         3.5430   -8.2950   11.5940 C.3       1    UNL1    -0.0223
     45 C45         0.8510    1.6160   17.4800 C.ar      1    UNL1    -0.0463
     46 C46         1.9800    0.4740   15.6750 C.ar      1    UNL1    -0.0463
     47 C47         1.0930    0.4520   16.7510 C.ar      1    UNL1     0.0608
     48 C48         0.4190   -0.7850   17.1110 C.2       1    UNL1     0.2662
     49 H1          4.7310    3.0580   13.0140 H         1    UNL1     0.1487
     50 H2          1.8410    4.3400   14.0680 H         1    UNL1     0.1490
     51 H3         -0.4230   -1.1720   15.2600 H         1    UNL1     0.2883
     52 H4         -0.9260   -2.2340   16.4950 H         1    UNL1     0.2883
     53 H5          0.1090   -2.1220   18.5710 H         1    UNL1     0.3009
     54 H6          1.1280   -0.8190   18.9850 H         1    UNL1     0.3009
     55 H7          6.0190    1.0790   11.3930 H         1    UNL1     0.0575
     56 H8          5.9840    0.4130   13.5950 H         1    UNL1     0.0286
     57 H9          5.4220    2.0090   13.8400 H         1    UNL1     0.0286
     58 H10         7.6020    1.2150   15.1320 H         1    UNL1     0.0279
     59 H11         7.6410    2.7850   14.4790 H         1    UNL1     0.0279
     60 H12         9.5370    1.7810   13.4120 H         1    UNL1     0.0444
     61 H13         8.8130    0.2360   13.3180 H         1    UNL1     0.0444
     62 H14         3.6830    4.9460   11.7880 H         1    UNL1     0.0462
     63 H15         5.3410    5.5220   11.5630 H         1    UNL1     0.0462
     64 H16         6.3430    0.7510    9.0120 H         1    UNL1     0.0638
     65 H17         5.0440    6.7180   13.3870 H         1    UNL1     0.0295
     66 H18         5.1220    5.1660   14.2530 H         1    UNL1     0.0295
     67 H19         4.6560   -0.9560    8.6490 H         1    UNL1     0.0633
     68 H20         3.2050    6.6690   14.8490 H         1    UNL1     0.0462
     69 H21         2.5750    6.2890   13.2390 H         1    UNL1     0.0462
     70 H22         7.5570   -3.9430   12.1420 H         1    UNL1     0.0749
     71 H23         5.8490   -4.2100   11.9120 H         1    UNL1     0.0749
     72 H24         9.6250   -5.1900   10.5920 H         1    UNL1     0.0655
     73 H25         9.6990   -9.1200   12.0530 H         1    UNL1     0.0624
     74 H26        10.8790   -7.1250   11.3420 H         1    UNL1     0.0619
     75 H27         5.1290  -10.3080   12.3810 H         1    UNL1     0.0638
     76 H28         8.8020  -10.5650   12.5670 H         1    UNL1     0.0278
     77 H29         7.4800  -11.5330   11.9610 H         1    UNL1     0.0278
     78 H30         7.4390  -10.9250   13.5990 H         1    UNL1     0.0278
     79 H31         1.3190    3.6640   17.6740 H         1    UNL1     0.0625
     80 H32         3.2830    1.6780   14.5330 H         1    UNL1     0.0625
     81 H33         3.2240   -7.3400   11.2320 H         1    UNL1     0.0292
     82 H34         3.1480   -8.4540   12.5760 H         1    UNL1     0.0292
     83 H35         3.1890   -9.0620   10.9380 H         1    UNL1     0.0292
     84 H36         0.1950    1.5990   18.2770 H         1    UNL1     0.0626
     85 H37         2.1590   -0.3870   15.1350 H         1    UNL1     0.0626
@<TRIPOS>UNITY_ATOM_ATTR
14 1
charge 1
@<TRIPOS>BOND
     1     1    22    1
     2     2    27    1
     3     3     4    2
     4     3     5    2
     5     3     9    1
     6     3    20    1
     7     6    19    2
     8     7    29    1
     9     7    30    1
    10     8    31    2
    11     9    15    1
    12     9    18    1
    13    10    19   am
    14    10    21    1
    15    11    28    1
    16    11    31   am
    17    12    32   ar
    18    12    39   ar
    19    13    48    1
    20    14    48    2
    21    15    16    1
    22    15    19    1
    23    16    17    1
    24    17    18    1
    25    20    22   ar
    26    20    23   ar
    27    21    24    1
    28    22    25   ar
    29    23    26   ar
    30    24    28    1
    31    25    27   ar
    32    25    29    1
    33    26    27   ar
    34    30    32   ar
    35    30    34   ar
    36    31    35    1
    37    32    33   ar
    38    33    36   ar
    39    33    37   ar
    40    34    38   ar
    41    35    42   ar
    42    35    43   ar
    43    36    40   ar
    44    36    41    1
    45    37    38   ar
    46    39    40   ar
    47    39    44    1
    48    42    45   ar
    49    43    46   ar
    50    45    47   ar
    51    46    47   ar
    52    47    48    1
    53    10    49    1
    54    11    50    1
    55    13    51    1
    56    13    52    1
    57    14    53    1
    58    14    54    1
    59    15    55    1
    60    16    56    1
    61    16    57    1
    62    17    58    1
    63    17    59    1
    64    18    60    1
    65    18    61    1
    66    21    62    1
    67    21    63    1
    68    23    64    1
    69    24    65    1
    70    24    66    1
    71    26    67    1
    72    28    68    1
    73    28    69    1
    74    29    70    1
    75    29    71    1
    76    34    72    1
    77    37    73    1
    78    38    74    1
    79    40    75    1
    80    41    76    1
    81    41    77    1
    82    41    78    1
    83    42    79    1
    84    43    80    1
    85    44    81    1
    86    44    82    1
    87    44    83    1
    88    45    84    1
    89    46    85    1
