#REMARK Cluster   8 of Poses:  1 Score: -6.34 kcal/mol
@<TRIPOS>MOLECULE
66000
 48 50 0 0 0
SMALL
GASTEIGER

@<TRIPOS>ATOM
      1 O1          5.8620    0.8040   11.9290 O.3       1    UNL1    -0.4901
      2 O2          1.2630    1.4960   14.8660 O.2       1    UNL1    -0.2755
      3 O3          1.8800   -2.4210   16.1430 O.co2     1    UNL1    -0.5498
      4 O4          4.0910   -2.6700   15.6640 O.co2     1    UNL1    -0.5498
      5 N5          3.1500    2.3790   13.8020 N.am      1    UNL1    -0.3090
      6 N6          7.4670   -6.7540    4.6240 N.pl3     1    UNL1    -0.2497
      7 N7          5.2210   -6.3160    4.1530 N.2       1    UNL1    -0.2884
      8 C8          3.3430    0.2250   14.6940 C.3       1    UNL1     0.0424
      9 C9          4.5030    1.9690   13.5100 C.3       1    UNL1     0.0578
     10 C10         4.7330    0.8450   14.5140 C.3       1    UNL1    -0.0199
     11 C11         2.4260    1.4180   14.5020 C.2       1    UNL1     0.2168
     12 C12         3.1580   -0.4500   16.0390 C.3       1    UNL1    -0.0020
     13 C13         4.6430    1.5130   12.0650 C.3       1    UNL1     0.1079
     14 C14         3.1360   -1.9540   15.9210 C.2       1    UNL1     0.0425
     15 C15         5.9210   -0.1510   10.9460 C.ar      1    UNL1     0.1206
     16 C16         5.5160   -1.4500   11.2260 C.ar      1    UNL1    -0.0194
     17 C17         6.3870    0.1920    9.6820 C.ar      1    UNL1    -0.0194
     18 C18         6.0430   -2.0870    8.9560 C.ar      1    UNL1    -0.0177
     19 C19         5.5770   -2.4220   10.2270 C.ar      1    UNL1    -0.0506
     20 C20         6.4480   -0.7800    8.6840 C.ar      1    UNL1    -0.0506
     21 C21         6.1070   -3.0940    7.9200 C.ar      1    UNL1    -0.0178
     22 C22         6.4260   -4.4120    8.2470 C.ar      1    UNL1    -0.0532
     23 C23         5.8480   -2.7490    6.5930 C.ar      1    UNL1    -0.0532
     24 C24         6.2270   -5.0380    5.9220 C.ar      1    UNL1     0.0608
     25 C25         6.4860   -5.3840    7.2480 C.ar      1    UNL1    -0.0465
     26 C26         5.9080   -3.7210    5.5950 C.ar      1    UNL1    -0.0465
     27 C27         6.2920   -6.0510    4.8800 C.2       1    UNL1     0.2662
     28 H1          2.7780    3.2500   13.5320 H         1    UNL1     0.1491
     29 H2          7.8750   -7.3060    5.3310 H         1    UNL1     0.2883
     30 H3          7.8900   -6.7000    3.7370 H         1    UNL1     0.2883
     31 H4          5.2620   -7.0010    3.4470 H         1    UNL1     0.3009
     32 H5          4.3820   -5.8270    4.3160 H         1    UNL1     0.3009
     33 H6          3.1500   -0.5720   14.0060 H         1    UNL1     0.0398
     34 H7          5.2250    2.7530   13.6040 H         1    UNL1     0.0532
     35 H8          5.4250    0.1250   14.1280 H         1    UNL1     0.0291
     36 H9          5.1540    1.1910   15.4350 H         1    UNL1     0.0291
     37 H10         2.2330   -0.1240   16.4650 H         1    UNL1     0.0332
     38 H11         3.9870   -0.1810   16.6600 H         1    UNL1     0.0332
     39 H12         3.8240    0.8730   11.8080 H         1    UNL1     0.0715
     40 H13         4.6380    2.3600   11.4120 H         1    UNL1     0.0715
     41 H14         5.1720   -1.6950   12.1680 H         1    UNL1     0.0654
     42 H15         6.6850    1.1590    9.4840 H         1    UNL1     0.0654
     43 H16         5.2770   -3.3880   10.4290 H         1    UNL1     0.0625
     44 H17         6.7930   -0.5320    7.7430 H         1    UNL1     0.0625
     45 H18         6.6180   -4.6680    9.2280 H         1    UNL1     0.0624
     46 H19         5.6110   -1.7740    6.3510 H         1    UNL1     0.0624
     47 H20         6.7230   -6.3590    7.4900 H         1    UNL1     0.0626
     48 H21         5.7150   -3.4650    4.6140 H         1    UNL1     0.0626
@<TRIPOS>UNITY_ATOM_ATTR
3 1
charge -1
7 1
charge 1
@<TRIPOS>BOND
     1     1    13    1
     2     1    15    1
     3     2    11    2
     4     3    14   ar
     5     4    14   ar
     6     5     9    1
     7     5    11   am
     8     6    27    1
     9     7    27    2
    10     8    10    1
    11     8    11    1
    12     8    12    1
    13     9    10    1
    14     9    13    1
    15    12    14    1
    16    15    16   ar
    17    15    17   ar
    18    16    19   ar
    19    17    20   ar
    20    18    19   ar
    21    18    20   ar
    22    18    21    1
    23    21    22   ar
    24    21    23   ar
    25    22    25   ar
    26    23    26   ar
    27    24    25   ar
    28    24    26   ar
    29    24    27    1
    30     5    28    1
    31     6    29    1
    32     6    30    1
    33     7    31    1
    34     7    32    1
    35     8    33    1
    36     9    34    1
    37    10    35    1
    38    10    36    1
    39    12    37    1
    40    12    38    1
    41    13    39    1
    42    13    40    1
    43    16    41    1
    44    17    42    1
    45    19    43    1
    46    20    44    1
    47    22    45    1
    48    23    46    1
    49    25    47    1
    50    26    48    1
