#REMARK Cluster   3 of Poses:  1 Score: -7.07 kcal/mol
@<TRIPOS>MOLECULE
66000
 48 50 0 0 0
SMALL
GASTEIGER

@<TRIPOS>ATOM
      1 O1          6.8380   -0.2100   11.3550 O.3       1    UNL1    -0.4901
      2 O2          6.2400    2.5100    8.5690 O.2       1    UNL1    -0.2755
      3 O3          4.4870    5.6530   12.2490 O.co2     1    UNL1    -0.5498
      4 O4          4.8100    3.6000   13.1780 O.co2     1    UNL1    -0.5498
      5 N5          8.0270    1.5960    9.7730 N.am      1    UNL1    -0.3090
      6 N6          5.6960   -6.4560    2.8250 N.pl3     1    UNL1    -0.2497
      7 N7          6.5500   -8.0600    4.2940 N.2       1    UNL1    -0.2884
      8 C8          6.3980    2.7480   10.9960 C.3       1    UNL1     0.0424
      9 C9          8.4660    1.5260   11.1460 C.3       1    UNL1     0.0578
     10 C10         7.7020    2.6740   11.7980 C.3       1    UNL1    -0.0199
     11 C11         6.8400    2.3070    9.6130 C.2       1    UNL1     0.2168
     12 C12         5.7700    4.1290   11.0010 C.3       1    UNL1    -0.0020
     13 C13         8.1410    0.1720   11.7610 C.3       1    UNL1     0.1079
     14 C14         4.9860    4.3900   12.2630 C.2       1    UNL1     0.0425
     15 C15         6.7470   -1.1300   10.3410 C.ar      1    UNL1     0.1206
     16 C16         6.2600   -0.7370    9.1000 C.ar      1    UNL1    -0.0194
     17 C17         7.1420   -2.4430   10.5670 C.ar      1    UNL1    -0.0194
     18 C18         6.5610   -2.9930    8.2880 C.ar      1    UNL1    -0.0177
     19 C19         6.1670   -1.6730    8.0700 C.ar      1    UNL1    -0.0506
     20 C20         7.0480   -3.3780    9.5360 C.ar      1    UNL1    -0.0506
     21 C21         6.4630   -3.9630    7.2190 C.ar      1    UNL1    -0.0178
     22 C22         5.9030   -3.5980    5.9940 C.ar      1    UNL1    -0.0532
     23 C23         6.9300   -5.2630    7.4120 C.ar      1    UNL1    -0.0532
     24 C24         6.2780   -5.8330    5.1570 C.ar      1    UNL1     0.0608
     25 C25         5.8100   -4.5340    4.9640 C.ar      1    UNL1    -0.0465
     26 C26         6.8380   -6.1980    6.3810 C.ar      1    UNL1    -0.0465
     27 C27         6.1800   -6.8090    4.0830 C.2       1    UNL1     0.2662
     28 H1          8.5170    1.1840    9.0250 H         1    UNL1     0.1491
     29 H2          6.0130   -5.6320    2.3880 H         1    UNL1     0.2883
     30 H3          5.0370   -7.0300    2.3720 H         1    UNL1     0.2883
     31 H4          6.4840   -8.7220    3.5680 H         1    UNL1     0.3009
     32 H5          6.8920   -8.3300    5.1770 H         1    UNL1     0.3009
     33 H6          5.6210    2.1390   11.4070 H         1    UNL1     0.0398
     34 H7          9.5240    1.6180   11.2700 H         1    UNL1     0.0532
     35 H8          7.5050    2.4640   12.8280 H         1    UNL1     0.0291
     36 H9          8.2490    3.5940   11.7860 H         1    UNL1     0.0291
     37 H10         5.1120    4.2120   10.1620 H         1    UNL1     0.0332
     38 H11         6.5590    4.8500   10.9480 H         1    UNL1     0.0332
     39 H12         8.8510   -0.5550   11.4260 H         1    UNL1     0.0715
     40 H13         8.1870    0.2360   12.8280 H         1    UNL1     0.0715
     41 H14         5.9700    0.2400    8.9420 H         1    UNL1     0.0654
     42 H15         7.5020   -2.7240   11.4920 H         1    UNL1     0.0654
     43 H16         5.8060   -1.3880    7.1450 H         1    UNL1     0.0625
     44 H17         7.3400   -4.3540    9.6980 H         1    UNL1     0.0625
     45 H18         5.5570   -2.6370    5.8510 H         1    UNL1     0.0624
     46 H19         7.3450   -5.5330    8.3180 H         1    UNL1     0.0624
     47 H20         5.3960   -4.2640    4.0580 H         1    UNL1     0.0626
     48 H21         7.1840   -7.1600    6.5240 H         1    UNL1     0.0626
@<TRIPOS>UNITY_ATOM_ATTR
3 1
charge -1
7 1
charge 1
@<TRIPOS>BOND
     1     1    13    1
     2     1    15    1
     3     2    11    2
     4     3    14   ar
     5     4    14   ar
     6     5     9    1
     7     5    11   am
     8     6    27    1
     9     7    27    2
    10     8    10    1
    11     8    11    1
    12     8    12    1
    13     9    10    1
    14     9    13    1
    15    12    14    1
    16    15    16   ar
    17    15    17   ar
    18    16    19   ar
    19    17    20   ar
    20    18    19   ar
    21    18    20   ar
    22    18    21    1
    23    21    22   ar
    24    21    23   ar
    25    22    25   ar
    26    23    26   ar
    27    24    25   ar
    28    24    26   ar
    29    24    27    1
    30     5    28    1
    31     6    29    1
    32     6    30    1
    33     7    31    1
    34     7    32    1
    35     8    33    1
    36     9    34    1
    37    10    35    1
    38    10    36    1
    39    12    37    1
    40    12    38    1
    41    13    39    1
    42    13    40    1
    43    16    41    1
    44    17    42    1
    45    19    43    1
    46    20    44    1
    47    22    45    1
    48    23    46    1
    49    25    47    1
    50    26    48    1
