#REMARK Cluster   7 of Poses:  1 Score: -7.29 kcal/mol
@<TRIPOS>MOLECULE
5496659
 60 62 0 0 0
SMALL
GASTEIGER

@<TRIPOS>ATOM
      1 O1          6.5900   -2.9260   11.7660 O.3       1    UNL1    -0.4677
      2 O2          8.5640   -3.3490   10.6500 O.2       1    UNL1    -0.2505
      3 O3          6.6410   -0.1680    7.7170 O.2       1    UNL1    -0.2702
      4 O4          9.6690    7.7490   13.8110 O.co2     1    UNL1    -0.6198
      5 N5          6.0130   -1.1590    9.7170 N.am      1    UNL1    -0.3080
      6 N6          5.7940   -6.5820    2.8080 N.pl3     1    UNL1    -0.2497
      7 N7          6.8300   -7.6760    4.5950 N.2       1    UNL1    -0.2884
      8 N8          9.2600    6.7230   13.1760 N.ar      1    UNL1    -0.1774
      9 C9          6.4270   -3.6040    9.5060 C.3       1    UNL1     0.0784
     10 C10         5.5310   -2.3960    9.1480 C.3       1    UNL1     0.0338
     11 C11         7.2670   -4.0780    8.3020 C.3       1    UNL1    -0.0130
     12 C12         4.0710   -2.6210    9.5380 C.3       1    UNL1    -0.0458
     13 C13         6.4430   -4.2540    7.0470 C.ar      1    UNL1    -0.0457
     14 C14         7.3410   -3.2860   10.6840 C.2       1    UNL1     0.3120
     15 C15         6.6950   -5.3280    6.1930 C.ar      1    UNL1    -0.0438
     16 C16         6.5340   -0.1360    8.9400 C.2       1    UNL1     0.2443
     17 C17         5.4330   -3.3420    6.7420 C.ar      1    UNL1    -0.0585
     18 C18         5.9360   -5.4890    5.0340 C.ar      1    UNL1     0.0611
     19 C19         7.0110    1.0610    9.6790 C.ar      1    UNL1     0.0367
     20 C20         4.6750   -3.5030    5.5830 C.ar      1    UNL1    -0.0607
     21 C21         4.9260   -4.5770    4.7290 C.ar      1    UNL1    -0.0470
     22 C22         8.1540    0.9790   10.4760 C.ar      1    UNL1    -0.0491
     23 C23         6.3170    2.2660    9.5770 C.ar      1    UNL1    -0.0491
     24 C24         7.9070    3.3090   11.0670 C.ar      1    UNL1    -0.0175
     25 C25         6.1990   -6.6070    4.1420 C.2       1    UNL1     0.2662
     26 C26         7.3060   -2.2910   12.8300 C.3       1    UNL1     0.0817
     27 C27         8.6010    2.1040   11.1690 C.ar      1    UNL1    -0.0533
     28 C28         6.7640    3.3900   10.2710 C.ar      1    UNL1    -0.0533
     29 C29         8.3700    4.4750   11.7870 C.ar      1    UNL1    -0.0066
     30 C30         7.7840    4.8210   13.0000 C.ar      1    UNL1     0.0111
     31 C31         9.4000    5.2510   11.2680 C.ar      1    UNL1     0.0111
     32 C32         8.2370    5.9450   13.6830 C.ar      1    UNL1     0.1834
     33 C33         9.8350    6.3700   11.9710 C.ar      1    UNL1     0.1834
     34 H1          5.9690   -1.0380   10.6930 H         1    UNL1     0.1493
     35 H2          6.1010   -5.8590    2.2150 H         1    UNL1     0.2883
     36 H3          5.2020   -7.2870    2.4600 H         1    UNL1     0.2883
     37 H4          7.0090   -8.4340    3.9930 H         1    UNL1     0.3009
     38 H5          7.1210   -7.7150    5.5350 H         1    UNL1     0.3009
     39 H6          5.7690   -4.4000    9.7860 H         1    UNL1     0.0435
     40 H7          5.5820   -2.3090    8.0820 H         1    UNL1     0.0504
     41 H8          7.7190   -5.0160    8.5490 H         1    UNL1     0.0322
     42 H9          8.0000   -3.3240    8.1030 H         1    UNL1     0.0322
     43 H10         3.9960   -2.7110   10.6020 H         1    UNL1     0.0248
     44 H11         3.7130   -3.5180    9.0780 H         1    UNL1     0.0248
     45 H12         3.4810   -1.7910    9.2080 H         1    UNL1     0.0248
     46 H13         7.4420   -6.0030    6.4190 H         1    UNL1     0.0629
     47 H14         5.2470   -2.5480    7.3740 H         1    UNL1     0.0620
     48 H15         3.9280   -2.8280    5.3570 H         1    UNL1     0.0618
     49 H16         4.3650   -4.6960    3.8710 H         1    UNL1     0.0626
     50 H17         8.6680    0.0880   10.5510 H         1    UNL1     0.0625
     51 H18         5.4720    2.3260    8.9870 H         1    UNL1     0.0625
     52 H19         6.6290   -2.0520   13.6230 H         1    UNL1     0.0661
     53 H20         7.7620   -1.3940   12.4670 H         1    UNL1     0.0661
     54 H21         8.0630   -2.9530   13.1950 H         1    UNL1     0.0661
     55 H22         9.4460    2.0440   11.7590 H         1    UNL1     0.0624
     56 H23         6.2500    4.2820   10.1950 H         1    UNL1     0.0624
     57 H24         7.0190    4.2490   13.3900 H         1    UNL1     0.0683
     58 H25         9.8380    4.9990   10.3680 H         1    UNL1     0.0683
     59 H26         7.8020    6.2020   14.5830 H         1    UNL1     0.1389
     60 H27        10.6000    6.9450   11.5850 H         1    UNL1     0.1389
@<TRIPOS>UNITY_ATOM_ATTR
4 1
charge -1
7 1
charge 1
8 1
charge 1
@<TRIPOS>BOND
     1     1    14    1
     2     1    26    1
     3     2    14    2
     4     3    16    2
     5     4     8    1
     6     5    10    1
     7     5    16   am
     8     6    25    1
     9     7    25    2
    10     8    32   ar
    11     8    33   ar
    12     9    10    1
    13     9    11    1
    14     9    14    1
    15    10    12    1
    16    11    13    1
    17    13    15   ar
    18    13    17   ar
    19    15    18   ar
    20    16    19    1
    21    17    20   ar
    22    18    21   ar
    23    18    25    1
    24    19    22   ar
    25    19    23   ar
    26    20    21   ar
    27    22    27   ar
    28    23    28   ar
    29    24    27   ar
    30    24    28   ar
    31    24    29    1
    32    29    30   ar
    33    29    31   ar
    34    30    32   ar
    35    31    33   ar
    36     5    34    1
    37     6    35    1
    38     6    36    1
    39     7    37    1
    40     7    38    1
    41     9    39    1
    42    10    40    1
    43    11    41    1
    44    11    42    1
    45    12    43    1
    46    12    44    1
    47    12    45    1
    48    15    46    1
    49    17    47    1
    50    20    48    1
    51    21    49    1
    52    22    50    1
    53    23    51    1
    54    26    52    1
    55    26    53    1
    56    26    54    1
    57    27    55    1
    58    28    56    1
    59    30    57    1
    60    31    58    1
    61    32    59    1
    62    33    60    1
