#REMARK Cluster   8 of Poses:  1 Score: -7.26 kcal/mol
@<TRIPOS>MOLECULE
5496659
 60 62 0 0 0
SMALL
GASTEIGER

@<TRIPOS>ATOM
      1 O1          4.9890   -2.1570   11.2900 O.3       1    UNL1    -0.4677
      2 O2          2.9050   -2.1170   10.3030 O.2       1    UNL1    -0.2505
      3 O3          7.2290    1.7570    9.9930 O.2       1    UNL1    -0.2702
      4 O4          2.5620    6.7210   17.9020 O.co2     1    UNL1    -0.6198
      5 N5          5.4100    0.3250   10.1260 N.am      1    UNL1    -0.3080
      6 N6          6.1690   -6.5770    3.4360 N.pl3     1    UNL1    -0.2497
      7 N7          6.7310   -7.1700    5.6250 N.2       1    UNL1    -0.2884
      8 N8          3.0310    6.0310   16.9400 N.ar      1    UNL1    -0.1774
      9 C9          4.9100   -1.8110    8.9520 C.3       1    UNL1     0.0784
     10 C10         5.8210   -0.5670    9.0670 C.3       1    UNL1     0.0338
     11 C11         5.7080   -3.0800    8.5860 C.3       1    UNL1    -0.0130
     12 C12         5.9290    0.1960    7.7480 C.3       1    UNL1    -0.0458
     13 C13         5.7050   -3.3650    7.1020 C.ar      1    UNL1    -0.0457
     14 C14         4.1250   -2.0450   10.2390 C.2       1    UNL1     0.3120
     15 C15         6.0010   -4.6470    6.6370 C.ar      1    UNL1    -0.0438
     16 C16         6.1620    1.4270   10.5030 C.2       1    UNL1     0.2443
     17 C17         5.4070   -2.3460    6.1970 C.ar      1    UNL1    -0.0585
     18 C18         6.0000   -4.9090    5.2670 C.ar      1    UNL1     0.0611
     19 C19         5.6160    2.2300   11.6270 C.ar      1    UNL1     0.0367
     20 C20         5.4060   -2.6090    4.8270 C.ar      1    UNL1    -0.0607
     21 C21         5.7030   -3.8900    4.3620 C.ar      1    UNL1    -0.0470
     22 C22         5.6080    1.7060   12.9200 C.ar      1    UNL1    -0.0491
     23 C23         5.1120    3.5090   11.3900 C.ar      1    UNL1    -0.0491
     24 C24         4.5910    3.7390   13.7380 C.ar      1    UNL1    -0.0175
     25 C25         6.3100   -6.2440    4.7820 C.2       1    UNL1     0.2662
     26 C26         4.5750   -1.5110   12.4980 C.3       1    UNL1     0.0817
     27 C27         5.0950    2.4600   13.9750 C.ar      1    UNL1    -0.0533
     28 C28         4.5990    4.2630   12.4450 C.ar      1    UNL1    -0.0533
     29 C29         4.0580    4.5220   14.8320 C.ar      1    UNL1    -0.0066
     30 C30         4.8990    4.9610   15.8480 C.ar      1    UNL1     0.0111
     31 C31         2.7040    4.8370   14.8670 C.ar      1    UNL1     0.0111
     32 C32         4.3750    5.7120   16.8940 C.ar      1    UNL1     0.1834
     33 C33         2.2040    5.5900   15.9240 C.ar      1    UNL1     0.1834
     34 H1          4.5650    0.1440   10.5980 H         1    UNL1     0.1493
     35 H2          5.8320   -7.4670    3.1810 H         1    UNL1     0.2883
     36 H3          6.4070   -5.9230    2.7390 H         1    UNL1     0.2883
     37 H4          6.9410   -8.0740    5.2990 H         1    UNL1     0.3009
     38 H5          6.8330   -6.9550    6.5810 H         1    UNL1     0.3009
     39 H6          4.2210   -1.6120    8.1590 H         1    UNL1     0.0435
     40 H7          6.7910   -0.9460    9.3140 H         1    UNL1     0.0504
     41 H8          5.2760   -3.9150    9.0960 H         1    UNL1     0.0322
     42 H9          6.7240   -2.9180    8.8800 H         1    UNL1     0.0322
     43 H10         4.9680    0.5840    7.4810 H         1    UNL1     0.0248
     44 H11         6.2720   -0.4650    6.9800 H         1    UNL1     0.0248
     45 H12         6.6210    1.0040    7.8590 H         1    UNL1     0.0248
     46 H13         6.2210   -5.4000    7.3070 H         1    UNL1     0.0629
     47 H14         5.1880   -1.3980    6.5410 H         1    UNL1     0.0620
     48 H15         5.1870   -1.8550    4.1570 H         1    UNL1     0.0618
     49 H16         5.7020   -4.0840    3.3480 H         1    UNL1     0.0626
     50 H17         5.9810    0.7600   13.0960 H         1    UNL1     0.0625
     51 H18         5.1180    3.8970   10.4340 H         1    UNL1     0.0625
     52 H19         5.3180   -1.6590   13.2540 H         1    UNL1     0.0661
     53 H20         3.6450   -1.9280   12.8250 H         1    UNL1     0.0661
     54 H21         4.4530   -0.4640   12.3180 H         1    UNL1     0.0661
     55 H22         5.0890    2.0730   14.9320 H         1    UNL1     0.0624
     56 H23         4.2260    5.2090   12.2700 H         1    UNL1     0.0624
     57 H24         5.9050    4.7300   15.8270 H         1    UNL1     0.0683
     58 H25         2.0750    4.5140   14.1150 H         1    UNL1     0.0683
     59 H26         4.9990    6.0380   17.6490 H         1    UNL1     0.1389
     60 H27         1.1990    5.8240   15.9510 H         1    UNL1     0.1389
@<TRIPOS>UNITY_ATOM_ATTR
4 1
charge -1
7 1
charge 1
8 1
charge 1
@<TRIPOS>BOND
     1     1    14    1
     2     1    26    1
     3     2    14    2
     4     3    16    2
     5     4     8    1
     6     5    10    1
     7     5    16   am
     8     6    25    1
     9     7    25    2
    10     8    32   ar
    11     8    33   ar
    12     9    10    1
    13     9    11    1
    14     9    14    1
    15    10    12    1
    16    11    13    1
    17    13    15   ar
    18    13    17   ar
    19    15    18   ar
    20    16    19    1
    21    17    20   ar
    22    18    21   ar
    23    18    25    1
    24    19    22   ar
    25    19    23   ar
    26    20    21   ar
    27    22    27   ar
    28    23    28   ar
    29    24    27   ar
    30    24    28   ar
    31    24    29    1
    32    29    30   ar
    33    29    31   ar
    34    30    32   ar
    35    31    33   ar
    36     5    34    1
    37     6    35    1
    38     6    36    1
    39     7    37    1
    40     7    38    1
    41     9    39    1
    42    10    40    1
    43    11    41    1
    44    11    42    1
    45    12    43    1
    46    12    44    1
    47    12    45    1
    48    15    46    1
    49    17    47    1
    50    20    48    1
    51    21    49    1
    52    22    50    1
    53    23    51    1
    54    26    52    1
    55    26    53    1
    56    26    54    1
    57    27    55    1
    58    28    56    1
    59    30    57    1
    60    31    58    1
    61    32    59    1
    62    33    60    1
