#REMARK Cluster   4 of Poses:  1 Score: -6.97 kcal/mol
@<TRIPOS>MOLECULE
66000
 48 50 0 0 0
SMALL
GASTEIGER

@<TRIPOS>ATOM
      1 O1          6.7070   -0.4680   11.4570 O.3       1    UNL1    -0.4901
      2 O2          4.5300    4.7420   11.5610 O.2       1    UNL1    -0.2755
      3 O3          6.9940    6.8680   13.2360 O.co2     1    UNL1    -0.5498
      4 O4          6.9590    5.0440   14.5960 O.co2     1    UNL1    -0.5498
      5 N5          4.9970    2.6610   10.5960 N.am      1    UNL1    -0.3090
      6 N6          6.5770   -8.2570    4.2180 N.pl3     1    UNL1    -0.2497
      7 N7          5.7570   -6.5370    2.8650 N.2       1    UNL1    -0.2884
      8 C8          6.5880    3.5290   12.0760 C.3       1    UNL1     0.0424
      9 C9          6.0510    1.6780   10.6360 C.3       1    UNL1     0.0578
     10 C10         7.2360    2.4800   11.1650 C.3       1    UNL1    -0.0199
     11 C11         5.2530    3.7710   11.3980 C.2       1    UNL1     0.2168
     12 C12         7.4150    4.7930   12.2150 C.3       1    UNL1    -0.0020
     13 C13         5.6800    0.5050   11.5340 C.3       1    UNL1     0.1079
     14 C14         7.1010    5.5380   13.4880 C.2       1    UNL1     0.0425
     15 C15         6.6350   -1.3690   10.4240 C.ar      1    UNL1     0.1206
     16 C16         7.0280   -2.6850   10.6330 C.ar      1    UNL1    -0.0194
     17 C17         6.1710   -0.9530    9.1820 C.ar      1    UNL1    -0.0194
     18 C18         6.4900   -3.1920    8.3330 C.ar      1    UNL1    -0.0177
     19 C19         6.9550   -3.6000    9.5830 C.ar      1    UNL1    -0.0506
     20 C20         6.0980   -1.8690    8.1330 C.ar      1    UNL1    -0.0506
     21 C21         6.4150   -4.1410    7.2440 C.ar      1    UNL1    -0.0178
     22 C22         7.2680   -5.2450    7.2200 C.ar      1    UNL1    -0.0532
     23 C23         5.4890   -3.9540    6.2170 C.ar      1    UNL1    -0.0532
     24 C24         6.2680   -5.9740    5.1440 C.ar      1    UNL1     0.0608
     25 C25         7.1940   -6.1610    6.1700 C.ar      1    UNL1    -0.0465
     26 C26         5.4160   -4.8700    5.1680 C.ar      1    UNL1    -0.0465
     27 C27         6.1930   -6.9270    4.0490 C.2       1    UNL1     0.2662
     28 H1          4.1790    2.5580   10.0570 H         1    UNL1     0.1491
     29 H2          7.0010   -8.5440    5.0590 H         1    UNL1     0.2883
     30 H3          6.4250   -8.9080    3.4960 H         1    UNL1     0.2883
     31 H4          5.7050   -7.1810    2.1220 H         1    UNL1     0.3009
     32 H5          5.4840   -5.6010    2.7250 H         1    UNL1     0.3009
     33 H6          6.4950    3.2000   13.0890 H         1    UNL1     0.0398
     34 H7          6.2580    1.2220    9.6900 H         1    UNL1     0.0532
     35 H8          7.9040    1.8540   11.7180 H         1    UNL1     0.0291
     36 H9          7.8220    2.9160   10.3830 H         1    UNL1     0.0291
     37 H10         7.2120    5.4320   11.3820 H         1    UNL1     0.0332
     38 H11         8.4470    4.5100   12.2450 H         1    UNL1     0.0332
     39 H12         5.5800    0.8430   12.5440 H         1    UNL1     0.0715
     40 H13         4.7510    0.0810   11.2160 H         1    UNL1     0.0715
     41 H14         7.3710   -2.9830   11.5590 H         1    UNL1     0.0654
     42 H15         5.8810    0.0270    9.0380 H         1    UNL1     0.0654
     43 H16         7.2450   -4.5800    9.7310 H         1    UNL1     0.0625
     44 H17         5.7540   -1.5670    7.2080 H         1    UNL1     0.0625
     45 H18         7.9530   -5.3840    7.9790 H         1    UNL1     0.0624
     46 H19         4.8580   -3.1380    6.2340 H         1    UNL1     0.0624
     47 H20         7.8250   -6.9780    6.1530 H         1    UNL1     0.0626
     48 H21         4.7300   -4.7310    4.4090 H         1    UNL1     0.0626
@<TRIPOS>UNITY_ATOM_ATTR
3 1
charge -1
7 1
charge 1
@<TRIPOS>BOND
     1     1    13    1
     2     1    15    1
     3     2    11    2
     4     3    14   ar
     5     4    14   ar
     6     5     9    1
     7     5    11   am
     8     6    27    1
     9     7    27    2
    10     8    10    1
    11     8    11    1
    12     8    12    1
    13     9    10    1
    14     9    13    1
    15    12    14    1
    16    15    16   ar
    17    15    17   ar
    18    16    19   ar
    19    17    20   ar
    20    18    19   ar
    21    18    20   ar
    22    18    21    1
    23    21    22   ar
    24    21    23   ar
    25    22    25   ar
    26    23    26   ar
    27    24    25   ar
    28    24    26   ar
    29    24    27    1
    30     5    28    1
    31     6    29    1
    32     6    30    1
    33     7    31    1
    34     7    32    1
    35     8    33    1
    36     9    34    1
    37    10    35    1
    38    10    36    1
    39    12    37    1
    40    12    38    1
    41    13    39    1
    42    13    40    1
    43    16    41    1
    44    17    42    1
    45    19    43    1
    46    20    44    1
    47    22    45    1
    48    23    46    1
    49    25    47    1
    50    26    48    1
