#REMARK Cluster  10 of Poses:  1 Score: -6.85 kcal/mol
@<TRIPOS>MOLECULE
5496659
 60 62 0 0 0
SMALL
GASTEIGER

@<TRIPOS>ATOM
      1 O1          4.1690   -2.2370   11.6670 O.3       1    UNL1    -0.4677
      2 O2          2.2950   -2.3650   10.3300 O.2       1    UNL1    -0.2505
      3 O3          7.1850    0.3090   10.3690 O.2       1    UNL1    -0.2702
      4 O4          2.4940    7.9070   15.7780 O.co2     1    UNL1    -0.6198
      5 N5          5.0190   -0.3360    9.8490 N.am      1    UNL1    -0.3080
      6 N6          5.9500   -5.8040    3.9550 N.pl3     1    UNL1    -0.2497
      7 N7          5.2950   -3.6260    4.4920 N.2       1    UNL1    -0.2884
      8 N8          2.9460    6.9390   15.0840 N.ar      1    UNL1    -0.1774
      9 C9          4.5090   -2.7260    9.3780 C.3       1    UNL1     0.0784
     10 C10         5.3740   -1.4870    9.0510 C.3       1    UNL1     0.0338
     11 C11         5.3710   -3.9460    9.7650 C.3       1    UNL1    -0.0130
     12 C12         5.3340   -1.1290    7.5660 C.3       1    UNL1    -0.0458
     13 C13         6.1530   -4.5040    8.5980 C.ar      1    UNL1    -0.0457
     14 C14         3.5070   -2.4260   10.4880 C.2       1    UNL1     0.3120
     15 C15         5.6570   -4.3740    7.3010 C.ar      1    UNL1    -0.0438
     16 C16         5.9710    0.4750   10.4480 C.2       1    UNL1     0.2443
     17 C17         7.3690   -5.1500    8.8190 C.ar      1    UNL1    -0.0585
     18 C18         6.3770   -4.8910    6.2240 C.ar      1    UNL1     0.0611
     19 C19         5.4440    1.6030   11.2580 C.ar      1    UNL1     0.0367
     20 C20         8.0890   -5.6670    7.7420 C.ar      1    UNL1    -0.0607
     21 C21         7.5940   -5.5380    6.4450 C.ar      1    UNL1    -0.0470
     22 C22         5.2290    1.4380   12.6270 C.ar      1    UNL1    -0.0491
     23 C23         5.1640    2.8260   10.6500 C.ar      1    UNL1    -0.0491
     24 C24         4.4540    3.7220   12.7790 C.ar      1    UNL1    -0.0175
     25 C25         5.8600   -4.7580    4.8720 C.2       1    UNL1     0.2662
     26 C26         3.4100   -1.6110   12.7060 C.3       1    UNL1     0.0817
     27 C27         4.7340    2.4980   13.3870 C.ar      1    UNL1    -0.0533
     28 C28         4.6690    3.8860   11.4100 C.ar      1    UNL1    -0.0533
     29 C29         3.9390    4.8210   13.5660 C.ar      1    UNL1    -0.0066
     30 C30         3.0880    4.5710   14.6370 C.ar      1    UNL1     0.0111
     31 C31         4.2940    6.1280   13.2530 C.ar      1    UNL1     0.0111
     32 C32         2.5990    5.6360   15.3860 C.ar      1    UNL1     0.1834
     33 C33         3.7920    7.1760   14.0180 C.ar      1    UNL1     0.1834
     34 H1          4.0670   -0.1200    9.9720 H         1    UNL1     0.1493
     35 H2          6.7130   -5.8500    3.3340 H         1    UNL1     0.2883
     36 H3          5.2510   -6.4970    3.9270 H         1    UNL1     0.2883
     37 H4          4.9440   -3.5340    3.5770 H         1    UNL1     0.3009
     38 H5          5.2240   -2.8750    5.1240 H         1    UNL1     0.3009
     39 H6          3.9730   -2.9690    8.4850 H         1    UNL1     0.0435
     40 H7          6.3760   -1.7640    9.3010 H         1    UNL1     0.0504
     41 H8          4.7280   -4.7130   10.1440 H         1    UNL1     0.0322
     42 H9          6.0780   -3.6210   10.5010 H         1    UNL1     0.0322
     43 H10         4.3390   -0.8480    7.2930 H         1    UNL1     0.0248
     44 H11         5.6380   -1.9760    6.9870 H         1    UNL1     0.0248
     45 H12         5.9990   -0.3120    7.3780 H         1    UNL1     0.0248
     46 H13         4.7570   -3.8960    7.1380 H         1    UNL1     0.0629
     47 H14         7.7360   -5.2460    9.7790 H         1    UNL1     0.0620
     48 H15         8.9890   -6.1460    7.9050 H         1    UNL1     0.0618
     49 H16         8.1260   -5.9200    5.6480 H         1    UNL1     0.0626
     50 H17         5.4360    0.5330   13.0770 H         1    UNL1     0.0625
     51 H18         5.3230    2.9480    9.6380 H         1    UNL1     0.0625
     52 H19         4.0170   -1.5100   13.5810 H         1    UNL1     0.0661
     53 H20         2.5540   -2.2110   12.9330 H         1    UNL1     0.0661
     54 H21         3.0900   -0.6430   12.3810 H         1    UNL1     0.0661
     55 H22         4.5750    2.3770   14.3990 H         1    UNL1     0.0624
     56 H23         4.4610    4.7910   10.9600 H         1    UNL1     0.0624
     57 H24         2.8210    3.6030   14.8740 H         1    UNL1     0.0683
     58 H25         4.9260    6.3200   12.4590 H         1    UNL1     0.0683
     59 H26         1.9680    5.4510   16.1810 H         1    UNL1     0.1389
     60 H27         4.0570    8.1460   13.7850 H         1    UNL1     0.1389
@<TRIPOS>UNITY_ATOM_ATTR
4 1
charge -1
7 1
charge 1
8 1
charge 1
@<TRIPOS>BOND
     1     1    14    1
     2     1    26    1
     3     2    14    2
     4     3    16    2
     5     4     8    1
     6     5    10    1
     7     5    16   am
     8     6    25    1
     9     7    25    2
    10     8    32   ar
    11     8    33   ar
    12     9    10    1
    13     9    11    1
    14     9    14    1
    15    10    12    1
    16    11    13    1
    17    13    15   ar
    18    13    17   ar
    19    15    18   ar
    20    16    19    1
    21    17    20   ar
    22    18    21   ar
    23    18    25    1
    24    19    22   ar
    25    19    23   ar
    26    20    21   ar
    27    22    27   ar
    28    23    28   ar
    29    24    27   ar
    30    24    28   ar
    31    24    29    1
    32    29    30   ar
    33    29    31   ar
    34    30    32   ar
    35    31    33   ar
    36     5    34    1
    37     6    35    1
    38     6    36    1
    39     7    37    1
    40     7    38    1
    41     9    39    1
    42    10    40    1
    43    11    41    1
    44    11    42    1
    45    12    43    1
    46    12    44    1
    47    12    45    1
    48    15    46    1
    49    17    47    1
    50    20    48    1
    51    21    49    1
    52    22    50    1
    53    23    51    1
    54    26    52    1
    55    26    53    1
    56    26    54    1
    57    27    55    1
    58    28    56    1
    59    30    57    1
    60    31    58    1
    61    32    59    1
    62    33    60    1
