#REMARK Cluster  17 of Poses:  1 Score: -5.25 kcal/mol
@<TRIPOS>MOLECULE
5496659
 60 62 0 0 0
SMALL
GASTEIGER

@<TRIPOS>ATOM
      1 O1          8.9180   -6.6050    9.2870 O.3       1    UNL1    -0.4677
      2 O2          8.5820   -4.4420   10.0120 O.2       1    UNL1    -0.2505
      3 O3          6.1330   -6.0830   13.2930 O.2       1    UNL1    -0.2702
      4 O4         13.9070  -11.1610   18.0630 O.co2     1    UNL1    -0.6198
      5 N5          6.9570   -7.0990   11.3780 N.am      1    UNL1    -0.3080
      6 N6          5.4100   -6.4780    3.0760 N.pl3     1    UNL1    -0.2497
      7 N7          6.9790   -7.3070    4.5970 N.2       1    UNL1    -0.2884
      8 N8         13.0000  -10.5960   17.3700 N.ar      1    UNL1    -0.1774
      9 C9          6.6950   -5.7970    9.2740 C.3       1    UNL1     0.0784
     10 C10         6.0090   -6.5160   10.4570 C.3       1    UNL1     0.0338
     11 C11         5.9690   -4.4910    8.8910 C.3       1    UNL1    -0.0130
     12 C12         5.0100   -7.5750    9.9920 C.3       1    UNL1    -0.0458
     13 C13         5.8370   -4.3100    7.3970 C.ar      1    UNL1    -0.0457
     14 C14         8.1620   -5.5060    9.5760 C.2       1    UNL1     0.3120
     15 C15         6.0310   -5.3970    6.5430 C.ar      1    UNL1    -0.0438
     16 C16         6.9370   -6.8270   12.7380 C.2       1    UNL1     0.2443
     17 C17         5.5250   -3.0570    6.8700 C.ar      1    UNL1    -0.0585
     18 C18         5.9110   -5.2290    5.1640 C.ar      1    UNL1     0.0611
     19 C19         7.9960   -7.4840   13.5460 C.ar      1    UNL1     0.0367
     20 C20         5.4060   -2.8900    5.4910 C.ar      1    UNL1    -0.0607
     21 C21         5.5990   -3.9760    4.6370 C.ar      1    UNL1    -0.0470
     22 C22         9.3370   -7.1750   13.3220 C.ar      1    UNL1    -0.0491
     23 C23         7.6490   -8.4100   14.5300 C.ar      1    UNL1    -0.0491
     24 C24         9.9840   -8.7180   15.0650 C.ar      1    UNL1    -0.0175
     25 C25         6.1150   -6.3610    4.2730 C.2       1    UNL1     0.2662
     26 C26         9.7720   -7.0600   10.3410 C.3       1    UNL1     0.0817
     27 C27        10.3320   -7.7920   14.0810 C.ar      1    UNL1    -0.0533
     28 C28         8.6430   -9.0270   15.2890 C.ar      1    UNL1    -0.0533
     29 C29        11.0150   -9.3600   15.8520 C.ar      1    UNL1    -0.0066
     30 C30        10.9300   -9.3610   17.2400 C.ar      1    UNL1     0.0111
     31 C31        12.0910   -9.9750   15.2220 C.ar      1    UNL1     0.0111
     32 C32        11.9270   -9.9810   17.9860 C.ar      1    UNL1     0.1834
     33 C33        13.0750  -10.5880   15.9900 C.ar      1    UNL1     0.1834
     34 H1          7.6440   -7.7110   11.0280 H         1    UNL1     0.1493
     35 H2          4.5120   -6.0840    2.9940 H         1    UNL1     0.2883
     36 H3          5.8110   -6.9540    2.3130 H         1    UNL1     0.2883
     37 H4          7.1180   -8.0740    3.9960 H         1    UNL1     0.3009
     38 H5          7.4840   -7.2440    5.4400 H         1    UNL1     0.3009
     39 H6          6.6410   -6.4640    8.4380 H         1    UNL1     0.0435
     40 H7          5.4690   -5.7550   10.9800 H         1    UNL1     0.0504
     41 H8          6.5200   -3.6640    9.2880 H         1    UNL1     0.0322
     42 H9          4.9810   -4.5400    9.2980 H         1    UNL1     0.0322
     43 H10         5.5290   -8.3480    9.4660 H         1    UNL1     0.0248
     44 H11         4.2890   -7.1230    9.3430 H         1    UNL1     0.0248
     45 H12         4.5130   -7.9930   10.8420 H         1    UNL1     0.0248
     46 H13         6.2620   -6.3240    6.9330 H         1    UNL1     0.0629
     47 H14         5.3820   -2.2530    7.5020 H         1    UNL1     0.0620
     48 H15         5.1750   -1.9620    5.1010 H         1    UNL1     0.0618
     49 H16         5.5110   -3.8520    3.6170 H         1    UNL1     0.0626
     50 H17         9.5940   -6.4900   12.5940 H         1    UNL1     0.0625
     51 H18         6.6560   -8.6390   14.6960 H         1    UNL1     0.0625
     52 H19        10.3170   -7.9200   10.0120 H         1    UNL1     0.0661
     53 H20         9.1800   -7.3180   11.1940 H         1    UNL1     0.0661
     54 H21        10.4580   -6.2820   10.6050 H         1    UNL1     0.0661
     55 H22        11.3240   -7.5630   13.9150 H         1    UNL1     0.0624
     56 H23         8.3860   -9.7120   16.0160 H         1    UNL1     0.0624
     57 H24        10.1330   -8.9060   17.7130 H         1    UNL1     0.0683
     58 H25        12.1590   -9.9760   14.1920 H         1    UNL1     0.0683
     59 H26        11.8640   -9.9830   19.0160 H         1    UNL1     0.1389
     60 H27        13.8730  -11.0440   15.5220 H         1    UNL1     0.1389
@<TRIPOS>UNITY_ATOM_ATTR
4 1
charge -1
7 1
charge 1
8 1
charge 1
@<TRIPOS>BOND
     1     1    14    1
     2     1    26    1
     3     2    14    2
     4     3    16    2
     5     4     8    1
     6     5    10    1
     7     5    16   am
     8     6    25    1
     9     7    25    2
    10     8    32   ar
    11     8    33   ar
    12     9    10    1
    13     9    11    1
    14     9    14    1
    15    10    12    1
    16    11    13    1
    17    13    15   ar
    18    13    17   ar
    19    15    18   ar
    20    16    19    1
    21    17    20   ar
    22    18    21   ar
    23    18    25    1
    24    19    22   ar
    25    19    23   ar
    26    20    21   ar
    27    22    27   ar
    28    23    28   ar
    29    24    27   ar
    30    24    28   ar
    31    24    29    1
    32    29    30   ar
    33    29    31   ar
    34    30    32   ar
    35    31    33   ar
    36     5    34    1
    37     6    35    1
    38     6    36    1
    39     7    37    1
    40     7    38    1
    41     9    39    1
    42    10    40    1
    43    11    41    1
    44    11    42    1
    45    12    43    1
    46    12    44    1
    47    12    45    1
    48    15    46    1
    49    17    47    1
    50    20    48    1
    51    21    49    1
    52    22    50    1
    53    23    51    1
    54    26    52    1
    55    26    53    1
    56    26    54    1
    57    27    55    1
    58    28    56    1
    59    30    57    1
    60    31    58    1
    61    32    59    1
    62    33    60    1
