#REMARK Cluster   3 of Poses:  1 Score: -7.70 kcal/mol
@<TRIPOS>MOLECULE
5496659
 60 62 0 0 0
SMALL
GASTEIGER

@<TRIPOS>ATOM
      1 O1          4.1300   -4.7180    9.8070 O.3       1    UNL1    -0.4677
      2 O2          5.6680   -6.3660   10.2940 O.2       1    UNL1    -0.2505
      3 O3          5.4220   -1.5330   10.8210 O.2       1    UNL1    -0.2702
      4 O4         10.1330    7.7770   11.1710 O.co2     1    UNL1    -0.6198
      5 N5          7.5780   -2.3670   11.0000 N.am      1    UNL1    -0.3080
      6 N6          5.7750   -6.5060    2.8010 N.pl3     1    UNL1    -0.2497
      7 N7          6.6760   -7.7800    4.5410 N.2       1    UNL1    -0.2884
      8 N8          9.6760    6.5890   11.1400 N.ar      1    UNL1    -0.1774
      9 C9          6.4170   -4.1300    9.6810 C.3       1    UNL1     0.0784
     10 C10         7.2220   -3.7660   10.9510 C.3       1    UNL1     0.0338
     11 C11         7.3350   -4.5670    8.5210 C.3       1    UNL1    -0.0130
     12 C12         8.4690   -4.6330   11.1150 C.3       1    UNL1    -0.0458
     13 C13         6.6510   -4.4940    7.1750 C.ar      1    UNL1    -0.0457
     14 C14         5.3900   -5.2190    9.9690 C.2       1    UNL1     0.3120
     15 C15         6.7350   -5.5700    6.2910 C.ar      1    UNL1    -0.0438
     16 C16         6.6330   -1.3560   10.9300 C.2       1    UNL1     0.2443
     17 C17         5.9390   -3.3500    6.8160 C.ar      1    UNL1    -0.0585
     18 C18         6.1060   -5.5010    5.0480 C.ar      1    UNL1     0.0611
     19 C19         7.1630    0.0310   10.9670 C.ar      1    UNL1     0.0367
     20 C20         5.3100   -3.2820    5.5730 C.ar      1    UNL1    -0.0607
     21 C21         5.3940   -4.3570    4.6890 C.ar      1    UNL1    -0.0470
     22 C22         6.2920    1.1070   11.1410 C.ar      1    UNL1    -0.0491
     23 C23         8.5330    0.2580   10.8290 C.ar      1    UNL1    -0.0491
     24 C24         8.1600    2.6360   11.0380 C.ar      1    UNL1    -0.0175
     25 C25         6.1940   -6.6220    4.1250 C.2       1    UNL1     0.2662
     26 C26         3.5360   -4.1550   10.9810 C.3       1    UNL1     0.0817
     27 C27         6.7910    2.4090   11.1760 C.ar      1    UNL1    -0.0533
     28 C28         9.0310    1.5600   10.8630 C.ar      1    UNL1    -0.0533
     29 C29         8.6790    3.9860   11.0720 C.ar      1    UNL1    -0.0066
     30 C30         8.3400    4.8340   12.1210 C.ar      1    UNL1     0.0111
     31 C31         9.5150    4.4370   10.0580 C.ar      1    UNL1     0.0111
     32 C32         8.8440    6.1300   12.1430 C.ar      1    UNL1     0.1834
     33 C33        10.0070    5.7380   10.1030 C.ar      1    UNL1     0.1834
     34 H1          8.5280   -2.1230   11.0860 H         1    UNL1     0.1493
     35 H2          6.0260   -5.7140    2.2730 H         1    UNL1     0.2883
     36 H3          5.2280   -7.2160    2.3940 H         1    UNL1     0.2883
     37 H4          6.7370   -8.5400    3.9180 H         1    UNL1     0.3009
     38 H5          6.9750   -7.8830    5.4730 H         1    UNL1     0.3009
     39 H6          5.9030   -3.2410    9.3810 H         1    UNL1     0.0435
     40 H7          6.5650   -3.9670   11.7720 H         1    UNL1     0.0504
     41 H8          7.6460   -5.5760    8.6920 H         1    UNL1     0.0322
     42 H9          8.1670   -3.8940    8.4970 H         1    UNL1     0.0322
     43 H10         9.1410   -4.4480   10.3030 H         1    UNL1     0.0248
     44 H11         8.1880   -5.6650   11.1170 H         1    UNL1     0.0248
     45 H12         8.9520   -4.3920   12.0390 H         1    UNL1     0.0248
     46 H13         7.2620   -6.4160    6.5570 H         1    UNL1     0.0629
     47 H14         5.8770   -2.5540    7.4700 H         1    UNL1     0.0620
     48 H15         4.7830   -2.4350    5.3070 H         1    UNL1     0.0618
     49 H16         4.9280   -4.3070    3.7690 H         1    UNL1     0.0626
     50 H17         5.2790    0.9390   11.2440 H         1    UNL1     0.0625
     51 H18         9.1770   -0.5380   10.7000 H         1    UNL1     0.0625
     52 H19         2.5570   -3.7930   10.7470 H         1    UNL1     0.0661
     53 H20         4.1400   -3.3450   11.3330 H         1    UNL1     0.0661
     54 H21         3.4670   -4.9050   11.7410 H         1    UNL1     0.0661
     55 H22         6.1470    3.2050   11.3050 H         1    UNL1     0.0624
     56 H23        10.0440    1.7280   10.7610 H         1    UNL1     0.0624
     57 H24         7.7190    4.5050   12.8770 H         1    UNL1     0.0683
     58 H25         9.7700    3.8120    9.2770 H         1    UNL1     0.0683
     59 H26         8.5930    6.7600   12.9210 H         1    UNL1     0.1389
     60 H27        10.6280    6.0730    9.3500 H         1    UNL1     0.1389
@<TRIPOS>UNITY_ATOM_ATTR
4 1
charge -1
7 1
charge 1
8 1
charge 1
@<TRIPOS>BOND
     1     1    14    1
     2     1    26    1
     3     2    14    2
     4     3    16    2
     5     4     8    1
     6     5    10    1
     7     5    16   am
     8     6    25    1
     9     7    25    2
    10     8    32   ar
    11     8    33   ar
    12     9    10    1
    13     9    11    1
    14     9    14    1
    15    10    12    1
    16    11    13    1
    17    13    15   ar
    18    13    17   ar
    19    15    18   ar
    20    16    19    1
    21    17    20   ar
    22    18    21   ar
    23    18    25    1
    24    19    22   ar
    25    19    23   ar
    26    20    21   ar
    27    22    27   ar
    28    23    28   ar
    29    24    27   ar
    30    24    28   ar
    31    24    29    1
    32    29    30   ar
    33    29    31   ar
    34    30    32   ar
    35    31    33   ar
    36     5    34    1
    37     6    35    1
    38     6    36    1
    39     7    37    1
    40     7    38    1
    41     9    39    1
    42    10    40    1
    43    11    41    1
    44    11    42    1
    45    12    43    1
    46    12    44    1
    47    12    45    1
    48    15    46    1
    49    17    47    1
    50    20    48    1
    51    21    49    1
    52    22    50    1
    53    23    51    1
    54    26    52    1
    55    26    53    1
    56    26    54    1
    57    27    55    1
    58    28    56    1
    59    30    57    1
    60    31    58    1
    61    32    59    1
    62    33    60    1
