#REMARK Cluster   5 of Poses:  1 Score: -7.45 kcal/mol
@<TRIPOS>MOLECULE
5496659
 60 62 0 0 0
SMALL
GASTEIGER

@<TRIPOS>ATOM
      1 O1          9.0660   -4.7400   11.3730 O.3       1    UNL1    -0.4677
      2 O2          7.8300   -2.8980   10.7380 O.2       1    UNL1    -0.2505
      3 O3          6.6730   -7.2180   12.7170 O.2       1    UNL1    -0.2702
      4 O4         -3.2380  -10.4630   13.1710 O.co2     1    UNL1    -0.6198
      5 N5          6.2360   -6.9450   10.4560 N.am      1    UNL1    -0.3080
      6 N6          7.5610   -6.7700    4.4300 N.pl3     1    UNL1    -0.2497
      7 N7          5.4560   -6.3210    3.5210 N.2       1    UNL1    -0.2884
      8 N8         -2.0480  -10.0480   12.9860 N.ar      1    UNL1    -0.1774
      9 C9          7.5520   -5.0240    9.5780 C.3       1    UNL1     0.0784
     10 C10         7.5540   -6.4840   10.0850 C.3       1    UNL1     0.0338
     11 C11         6.1370   -4.5520    9.1820 C.3       1    UNL1    -0.0130
     12 C12         8.5300   -6.6950   11.2420 C.3       1    UNL1    -0.0458
     13 C13         6.0110   -4.2570    7.7060 C.ar      1    UNL1    -0.0457
     14 C14         8.1440   -4.0760   10.6160 C.2       1    UNL1     0.3120
     15 C15         6.2430   -5.2660    6.7710 C.ar      1    UNL1    -0.0438
     16 C16         5.9050   -7.2770   11.7610 C.2       1    UNL1     0.2443
     17 C17         5.6650   -2.9750    7.2780 C.ar      1    UNL1    -0.0585
     18 C18         6.1290   -4.9930    5.4070 C.ar      1    UNL1     0.0611
     19 C19         4.5160   -7.7600   11.9740 C.ar      1    UNL1     0.0367
     20 C20         5.5510   -2.7020    5.9140 C.ar      1    UNL1    -0.0607
     21 C21         5.7830   -3.7110    4.9790 C.ar      1    UNL1    -0.0470
     22 C22         3.4800   -6.8440   12.1570 C.ar      1    UNL1    -0.0491
     23 C23         4.2490   -9.1290   11.9910 C.ar      1    UNL1    -0.0491
     24 C24         1.9080   -8.6670   12.3740 C.ar      1    UNL1    -0.0175
     25 C25         6.3720   -6.0440    4.4320 C.2       1    UNL1     0.2662
     26 C26         9.9780   -3.9110   12.0990 C.3       1    UNL1     0.0817
     27 C27         2.1760   -7.2980   12.3570 C.ar      1    UNL1    -0.0533
     28 C28         2.9450   -9.5820   12.1920 C.ar      1    UNL1    -0.0533
     29 C29         0.5570   -9.1390   12.5830 C.ar      1    UNL1    -0.0066
     30 C30         0.2950  -10.0900   13.5630 C.ar      1    UNL1     0.0111
     31 C31        -0.4820   -8.6410   11.8040 C.ar      1    UNL1     0.0111
     32 C32        -1.0080  -10.5360   13.7540 C.ar      1    UNL1     0.1834
     33 C33        -1.7770   -9.1030   12.0150 C.ar      1    UNL1     0.1834
     34 H1          5.5480   -7.0260    9.7570 H         1    UNL1     0.1493
     35 H2          8.2430   -6.5980    3.7410 H         1    UNL1     0.2883
     36 H3          7.7200   -7.4570    5.1190 H         1    UNL1     0.2883
     37 H4          5.6190   -7.0320    2.8600 H         1    UNL1     0.3009
     38 H5          4.6110   -5.8160    3.5040 H         1    UNL1     0.3009
     39 H6          8.1660   -5.0040    8.7030 H         1    UNL1     0.0435
     40 H7          7.8860   -7.0740    9.2560 H         1    UNL1     0.0504
     41 H8          5.9080   -3.6610    9.7300 H         1    UNL1     0.0322
     42 H9          5.4570   -5.3450    9.4120 H         1    UNL1     0.0322
     43 H10         8.2160   -6.1140   12.0840 H         1    UNL1     0.0248
     44 H11         9.5100   -6.3880   10.9420 H         1    UNL1     0.0248
     45 H12         8.5470   -7.7310   11.5100 H         1    UNL1     0.0248
     46 H13         6.4990   -6.2140    7.0870 H         1    UNL1     0.0629
     47 H14         5.4940   -2.2290    7.9690 H         1    UNL1     0.0620
     48 H15         5.2950   -1.7540    5.5980 H         1    UNL1     0.0618
     49 H16         5.6990   -3.5090    3.9710 H         1    UNL1     0.0626
     50 H17         3.6770   -5.8320   12.1440 H         1    UNL1     0.0625
     51 H18         5.0160   -9.8060   11.8560 H         1    UNL1     0.0625
     52 H19        10.6540   -4.5260   12.6560 H         1    UNL1     0.0661
     53 H20         9.4310   -3.2830   12.7720 H         1    UNL1     0.0661
     54 H21        10.5310   -3.3030   11.4140 H         1    UNL1     0.0661
     55 H22         1.4090   -6.6210   12.4920 H         1    UNL1     0.0624
     56 H23         2.7470  -10.5950   12.2050 H         1    UNL1     0.0624
     57 H24         1.0630  -10.4630   14.1440 H         1    UNL1     0.0683
     58 H25        -0.2940   -7.9350   11.0750 H         1    UNL1     0.0683
     59 H26        -1.2020  -11.2420   14.4810 H         1    UNL1     0.1389
     60 H27        -2.5490   -8.7340   11.4370 H         1    UNL1     0.1389
@<TRIPOS>UNITY_ATOM_ATTR
4 1
charge -1
7 1
charge 1
8 1
charge 1
@<TRIPOS>BOND
     1     1    14    1
     2     1    26    1
     3     2    14    2
     4     3    16    2
     5     4     8    1
     6     5    10    1
     7     5    16   am
     8     6    25    1
     9     7    25    2
    10     8    32   ar
    11     8    33   ar
    12     9    10    1
    13     9    11    1
    14     9    14    1
    15    10    12    1
    16    11    13    1
    17    13    15   ar
    18    13    17   ar
    19    15    18   ar
    20    16    19    1
    21    17    20   ar
    22    18    21   ar
    23    18    25    1
    24    19    22   ar
    25    19    23   ar
    26    20    21   ar
    27    22    27   ar
    28    23    28   ar
    29    24    27   ar
    30    24    28   ar
    31    24    29    1
    32    29    30   ar
    33    29    31   ar
    34    30    32   ar
    35    31    33   ar
    36     5    34    1
    37     6    35    1
    38     6    36    1
    39     7    37    1
    40     7    38    1
    41     9    39    1
    42    10    40    1
    43    11    41    1
    44    11    42    1
    45    12    43    1
    46    12    44    1
    47    12    45    1
    48    15    46    1
    49    17    47    1
    50    20    48    1
    51    21    49    1
    52    22    50    1
    53    23    51    1
    54    26    52    1
    55    26    53    1
    56    26    54    1
    57    27    55    1
    58    28    56    1
    59    30    57    1
    60    31    58    1
    61    32    59    1
    62    33    60    1
