#REMARK Cluster   2 of Poses:  1 Score: -7.95 kcal/mol
@<TRIPOS>MOLECULE
5496659
 60 62 0 0 0
SMALL
GASTEIGER

@<TRIPOS>ATOM
      1 O1          7.5880   -7.1410    9.7450 O.3       1    UNL1    -0.4677
      2 O2          8.3960   -5.0820    9.0910 O.2       1    UNL1    -0.2505
      3 O3          4.3530   -6.7990   13.0900 O.2       1    UNL1    -0.2702
      4 O4          1.5210  -16.8170   12.3270 O.co2     1    UNL1    -0.6198
      5 N5          4.8130   -6.9990   10.8260 N.am      1    UNL1    -0.3080
      6 N6          7.3880   -6.9280    4.3250 N.pl3     1    UNL1    -0.2497
      7 N7          5.2070   -6.6960    3.5180 N.2       1    UNL1    -0.2884
      8 N8          1.8910  -15.5990   12.2920 N.ar      1    UNL1    -0.1774
      9 C9          5.9940   -5.4590    9.2680 C.3       1    UNL1     0.0784
     10 C10         5.2900   -5.6490   10.6310 C.3       1    UNL1     0.0338
     11 C11         5.8520   -4.0160    8.7400 C.3       1    UNL1    -0.0130
     12 C12         4.1500   -4.6530   10.8390 C.3       1    UNL1    -0.0458
     13 C13         5.8070   -3.9470    7.2320 C.ar      1    UNL1    -0.0457
     14 C14         7.4690   -5.8400    9.3480 C.2       1    UNL1     0.3120
     15 C15         6.0060   -5.1010    6.4740 C.ar      1    UNL1    -0.0438
     16 C16         4.3790   -7.4640   12.0570 C.2       1    UNL1     0.2443
     17 C17         5.5680   -2.7290    6.5960 C.ar      1    UNL1    -0.0585
     18 C18         5.9670   -5.0370    5.0810 C.ar      1    UNL1     0.0611
     19 C19         3.9440   -8.8830   12.0980 C.ar      1    UNL1     0.0367
     20 C20         5.5290   -2.6640    5.2030 C.ar      1    UNL1    -0.0607
     21 C21         5.7280   -3.8180    4.4460 C.ar      1    UNL1    -0.0470
     22 C22         2.5860   -9.1990   12.0340 C.ar      1    UNL1    -0.0491
     23 C23         4.8930   -9.9010   12.1990 C.ar      1    UNL1    -0.0491
     24 C24         3.1270  -11.5500   12.1730 C.ar      1    UNL1    -0.0175
     25 C25         6.1760   -6.2390    4.2910 C.2       1    UNL1     0.2662
     26 C26         8.5280   -7.3810   10.7970 C.3       1    UNL1     0.0817
     27 C27         2.1780  -10.5330   12.0720 C.ar      1    UNL1    -0.0533
     28 C28         4.4840  -11.2340   12.2370 C.ar      1    UNL1    -0.0533
     29 C29         2.7050  -12.9330   12.2140 C.ar      1    UNL1    -0.0066
     30 C30         2.6390  -13.6750   11.0400 C.ar      1    UNL1     0.0111
     31 C31         2.3650  -13.5220   13.4270 C.ar      1    UNL1     0.0111
     32 C32         2.2320  -15.0040   11.0920 C.ar      1    UNL1     0.1834
     33 C33         1.9600  -14.8530   13.4520 C.ar      1    UNL1     0.1834
     34 H1          4.7950   -7.6110   10.0550 H         1    UNL1     0.1493
     35 H2          7.9790   -6.9210    3.5380 H         1    UNL1     0.2883
     36 H3          7.6520   -7.4200    5.1350 H         1    UNL1     0.2883
     37 H4          5.3460   -7.5100    2.9820 H         1    UNL1     0.3009
     38 H5          4.3440   -6.2220    3.4780 H         1    UNL1     0.3009
     39 H6          5.5060   -6.1150    8.5780 H         1    UNL1     0.0435
     40 H7          6.0400   -5.4570   11.3700 H         1    UNL1     0.0504
     41 H8          6.6870   -3.4430    9.0840 H         1    UNL1     0.0322
     42 H9          4.9260   -3.6280    9.1090 H         1    UNL1     0.0322
     43 H10         3.3870   -4.8280   10.1090 H         1    UNL1     0.0248
     44 H11         4.5240   -3.6560   10.7320 H         1    UNL1     0.0248
     45 H12         3.7410   -4.7780   11.8200 H         1    UNL1     0.0248
     46 H13         6.1830   -6.0030    6.9440 H         1    UNL1     0.0629
     47 H14         5.4200   -1.8750    7.1570 H         1    UNL1     0.0620
     48 H15         5.3520   -1.7620    4.7330 H         1    UNL1     0.0618
     49 H16         5.6990   -3.7700    3.4150 H         1    UNL1     0.0626
     50 H17         1.8840   -8.4470   11.9590 H         1    UNL1     0.0625
     51 H18         5.8970   -9.6670   12.2460 H         1    UNL1     0.0625
     52 H19         8.5430   -8.4250   11.0300 H         1    UNL1     0.0661
     53 H20         8.2410   -6.8250   11.6650 H         1    UNL1     0.0661
     54 H21         9.5020   -7.0710   10.4810 H         1    UNL1     0.0661
     55 H22         1.1740  -10.7670   12.0250 H         1    UNL1     0.0624
     56 H23         5.1870  -11.9870   12.3120 H         1    UNL1     0.0624
     57 H24         2.8900  -13.2430   10.1370 H         1    UNL1     0.0683
     58 H25         2.4120  -12.9760   14.3010 H         1    UNL1     0.0683
     59 H26         2.1830  -15.5550   10.2200 H         1    UNL1     0.1389
     60 H27         1.7080  -15.2900   14.3520 H         1    UNL1     0.1389
@<TRIPOS>UNITY_ATOM_ATTR
4 1
charge -1
7 1
charge 1
8 1
charge 1
@<TRIPOS>BOND
     1     1    14    1
     2     1    26    1
     3     2    14    2
     4     3    16    2
     5     4     8    1
     6     5    10    1
     7     5    16   am
     8     6    25    1
     9     7    25    2
    10     8    32   ar
    11     8    33   ar
    12     9    10    1
    13     9    11    1
    14     9    14    1
    15    10    12    1
    16    11    13    1
    17    13    15   ar
    18    13    17   ar
    19    15    18   ar
    20    16    19    1
    21    17    20   ar
    22    18    21   ar
    23    18    25    1
    24    19    22   ar
    25    19    23   ar
    26    20    21   ar
    27    22    27   ar
    28    23    28   ar
    29    24    27   ar
    30    24    28   ar
    31    24    29    1
    32    29    30   ar
    33    29    31   ar
    34    30    32   ar
    35    31    33   ar
    36     5    34    1
    37     6    35    1
    38     6    36    1
    39     7    37    1
    40     7    38    1
    41     9    39    1
    42    10    40    1
    43    11    41    1
    44    11    42    1
    45    12    43    1
    46    12    44    1
    47    12    45    1
    48    15    46    1
    49    17    47    1
    50    20    48    1
    51    21    49    1
    52    22    50    1
    53    23    51    1
    54    26    52    1
    55    26    53    1
    56    26    54    1
    57    27    55    1
    58    28    56    1
    59    30    57    1
    60    31    58    1
    61    32    59    1
    62    33    60    1
