#REMARK Cluster  13 of Poses:  1 Score: -6.36 kcal/mol
@<TRIPOS>MOLECULE
5496659
 60 62 0 0 0
SMALL
GASTEIGER

@<TRIPOS>ATOM
      1 O1          3.4900   -4.8840   12.5410 O.3       1    UNL1    -0.4677
      2 O2          2.5480   -3.4750   10.9770 O.2       1    UNL1    -0.2505
      3 O3          6.2750   -1.1250   10.3650 O.2       1    UNL1    -0.2702
      4 O4          4.6270    8.5330   13.9710 O.co2     1    UNL1    -0.6198
      5 N5          5.6330   -1.7760   12.4960 N.am      1    UNL1    -0.3080
      6 N6          5.9780   -2.0590    5.0460 N.pl3     1    UNL1    -0.2497
      7 N7          4.0620   -2.2250    6.3740 N.2       1    UNL1    -0.2884
      8 N8          4.7910    7.3110   13.6500 N.ar      1    UNL1    -0.1774
      9 C9          4.9690   -3.7280   11.1030 C.3       1    UNL1     0.0784
     10 C10         5.7980   -3.1970   12.2950 C.3       1    UNL1     0.0338
     11 C11         5.5860   -5.0030   10.4920 C.3       1    UNL1    -0.0130
     12 C12         7.2810   -3.5420   12.1690 C.3       1    UNL1    -0.0458
     13 C13         6.0650   -4.8000    9.0740 C.ar      1    UNL1    -0.0457
     14 C14         3.5220   -3.9930   11.5070 C.2       1    UNL1     0.3120
     15 C15         5.4730   -3.8270    8.2700 C.ar      1    UNL1    -0.0438
     16 C16         5.8900   -0.8490   11.4990 C.2       1    UNL1     0.2443
     17 C17         7.0990   -5.5880    8.5670 C.ar      1    UNL1    -0.0585
     18 C18         5.9140   -3.6410    6.9600 C.ar      1    UNL1     0.0611
     19 C19         5.6980    0.5760   11.8730 C.ar      1    UNL1     0.0367
     20 C20         7.5400   -5.4020    7.2570 C.ar      1    UNL1    -0.0607
     21 C21         6.9480   -4.4290    6.4530 C.ar      1    UNL1    -0.0470
     22 C22         6.0670    1.5860   10.9850 C.ar      1    UNL1    -0.0491
     23 C23         5.1480    0.9030   13.1120 C.ar      1    UNL1    -0.0491
     24 C24         5.3360    3.2510   12.5760 C.ar      1    UNL1    -0.0175
     25 C25         5.2950   -2.6270    6.1200 C.2       1    UNL1     0.2662
     26 C26         3.0820   -6.2120   12.1970 C.3       1    UNL1     0.0817
     27 C27         5.8860    2.9240   11.3370 C.ar      1    UNL1    -0.0533
     28 C28         4.9670    2.2400   13.4640 C.ar      1    UNL1    -0.0533
     29 C29         5.1490    4.6380   12.9430 C.ar      1    UNL1    -0.0066
     30 C30         6.2340    5.3970   13.3700 C.ar      1    UNL1     0.0111
     31 C31         3.8860    5.2140   12.8690 C.ar      1    UNL1     0.0111
     32 C32         6.0420    6.7290   13.7190 C.ar      1    UNL1     0.1834
     33 C33         3.7200    6.5490   13.2240 C.ar      1    UNL1     0.1834
     34 H1          5.3270   -1.4540   13.3750 H         1    UNL1     0.1493
     35 H2          6.9170   -1.7810    5.1520 H         1    UNL1     0.2883
     36 H3          5.5220   -1.9350    4.1830 H         1    UNL1     0.2883
     37 H4          3.6410   -1.5390    5.8070 H         1    UNL1     0.3009
     38 H5          3.5640   -2.6120    7.1300 H         1    UNL1     0.3009
     39 H6          4.9830   -2.9620   10.3560 H         1    UNL1     0.0435
     40 H7          5.4110   -3.6980   13.1570 H         1    UNL1     0.0504
     41 H8          4.8460   -5.7760   10.4950 H         1    UNL1     0.0322
     42 H9          6.4360   -5.2660   11.0860 H         1    UNL1     0.0322
     43 H10         7.6900   -3.0500   11.3110 H         1    UNL1     0.0248
     44 H11         7.3930   -4.6000   12.0610 H         1    UNL1     0.0248
     45 H12         7.7990   -3.2160   13.0470 H         1    UNL1     0.0248
     46 H13         4.7080   -3.2440    8.6440 H         1    UNL1     0.0629
     47 H14         7.5380   -6.3080    9.1620 H         1    UNL1     0.0620
     48 H15         8.3050   -5.9850    6.8830 H         1    UNL1     0.0618
     49 H16         7.2740   -4.2910    5.4840 H         1    UNL1     0.0626
     50 H17         6.4740    1.3450   10.0680 H         1    UNL1     0.0625
     51 H18         4.8740    0.1550   13.7690 H         1    UNL1     0.0625
     52 H19         3.0910   -6.8260   13.0730 H         1    UNL1     0.0661
     53 H20         3.7570   -6.6150   11.4720 H         1    UNL1     0.0661
     54 H21         2.0930   -6.1870   11.7890 H         1    UNL1     0.0661
     55 H22         6.1590    3.6720   10.6800 H         1    UNL1     0.0624
     56 H23         4.5600    2.4820   14.3810 H         1    UNL1     0.0624
     57 H24         7.1740    4.9750   13.4260 H         1    UNL1     0.0683
     58 H25         3.0770    4.6550   12.5530 H         1    UNL1     0.0683
     59 H26         6.8460    7.2920   14.0360 H         1    UNL1     0.1389
     60 H27         2.7820    6.9760   13.1700 H         1    UNL1     0.1389
@<TRIPOS>UNITY_ATOM_ATTR
4 1
charge -1
7 1
charge 1
8 1
charge 1
@<TRIPOS>BOND
     1     1    14    1
     2     1    26    1
     3     2    14    2
     4     3    16    2
     5     4     8    1
     6     5    10    1
     7     5    16   am
     8     6    25    1
     9     7    25    2
    10     8    32   ar
    11     8    33   ar
    12     9    10    1
    13     9    11    1
    14     9    14    1
    15    10    12    1
    16    11    13    1
    17    13    15   ar
    18    13    17   ar
    19    15    18   ar
    20    16    19    1
    21    17    20   ar
    22    18    21   ar
    23    18    25    1
    24    19    22   ar
    25    19    23   ar
    26    20    21   ar
    27    22    27   ar
    28    23    28   ar
    29    24    27   ar
    30    24    28   ar
    31    24    29    1
    32    29    30   ar
    33    29    31   ar
    34    30    32   ar
    35    31    33   ar
    36     5    34    1
    37     6    35    1
    38     6    36    1
    39     7    37    1
    40     7    38    1
    41     9    39    1
    42    10    40    1
    43    11    41    1
    44    11    42    1
    45    12    43    1
    46    12    44    1
    47    12    45    1
    48    15    46    1
    49    17    47    1
    50    20    48    1
    51    21    49    1
    52    22    50    1
    53    23    51    1
    54    26    52    1
    55    26    53    1
    56    26    54    1
    57    27    55    1
    58    28    56    1
    59    30    57    1
    60    31    58    1
    61    32    59    1
    62    33    60    1
