#REMARK Cluster   2 of Poses:  3 Score: -7.16 kcal/mol
@<TRIPOS>MOLECULE
66000
 48 50 0 0 0
SMALL
GASTEIGER

@<TRIPOS>ATOM
      1 O1          5.7210    0.4900   10.8600 O.3       1    UNL1    -0.4901
      2 O2          8.6660    5.0720   10.4460 O.2       1    UNL1    -0.2755
      3 O3         11.7080    0.9960   11.6620 O.co2     1    UNL1    -0.5498
      4 O4         10.0140    0.9680   13.1820 O.co2     1    UNL1    -0.5498
      5 N5          7.2870    3.4630    9.4530 N.am      1    UNL1    -0.3090
      6 N6          5.9840   -6.5220    2.8700 N.pl3     1    UNL1    -0.2497
      7 N7          6.7630   -7.9280    4.5660 N.2       1    UNL1    -0.2884
      8 C8          8.6710    2.7470   11.1990 C.3       1    UNL1     0.0424
      9 C9          7.0130    2.0540    9.5990 C.3       1    UNL1     0.0578
     10 C10         8.2470    1.5500   10.3410 C.3       1    UNL1    -0.0199
     11 C11         8.2530    3.9280   10.3420 C.2       1    UNL1     0.2168
     12 C12        10.1520    2.7530   11.5270 C.3       1    UNL1    -0.0020
     13 C13         5.7200    1.8180   10.3680 C.3       1    UNL1     0.1079
     14 C14        10.5800    1.4910   12.2340 C.2       1    UNL1     0.0425
     15 C15         5.8080   -0.5180    9.9320 C.ar      1    UNL1     0.1206
     16 C16         6.5030   -0.3020    8.7490 C.ar      1    UNL1    -0.0194
     17 C17         5.1990   -1.7400   10.1880 C.ar      1    UNL1    -0.0194
     18 C18         5.9830   -2.5570    8.0530 C.ar      1    UNL1    -0.0177
     19 C19         6.5910   -1.3260    7.8050 C.ar      1    UNL1    -0.0506
     20 C20         5.2870   -2.7640    9.2440 C.ar      1    UNL1    -0.0506
     21 C21         6.0730   -3.6180    7.0740 C.ar      1    UNL1    -0.0178
     22 C22         5.2960   -3.5670    5.9160 C.ar      1    UNL1    -0.0532
     23 C23         6.9370   -4.6920    7.2870 C.ar      1    UNL1    -0.0532
     24 C24         6.2490   -5.6640    5.1850 C.ar      1    UNL1     0.0608
     25 C25         5.3850   -4.5900    4.9720 C.ar      1    UNL1    -0.0465
     26 C26         7.0260   -5.7150    6.3420 C.ar      1    UNL1    -0.0465
     27 C27         6.3400   -6.7310    4.2010 C.2       1    UNL1     0.2662
     28 H1          6.8360    4.0380    8.7930 H         1    UNL1     0.1491
     29 H2          6.2130   -5.6740    2.4260 H         1    UNL1     0.2883
     30 H3          5.5030   -7.2230    2.3730 H         1    UNL1     0.2883
     31 H4          6.8250   -8.6520    3.9020 H         1    UNL1     0.3009
     32 H5          7.0160   -8.0970    5.5020 H         1    UNL1     0.3009
     33 H6          8.2180    2.7470   12.1680 H         1    UNL1     0.0398
     34 H7          6.8580    1.5430    8.6720 H         1    UNL1     0.0532
     35 H8          8.0050    0.7080   10.9550 H         1    UNL1     0.0291
     36 H9          9.0200    1.2190    9.6800 H         1    UNL1     0.0291
     37 H10        10.3620    3.5900   12.1590 H         1    UNL1     0.0332
     38 H11        10.6930    2.8160   10.6070 H         1    UNL1     0.0332
     39 H12         5.6570    2.5050   11.1860 H         1    UNL1     0.0715
     40 H13         4.8790    1.9680    9.7230 H         1    UNL1     0.0715
     41 H14         6.9520    0.6090    8.5690 H         1    UNL1     0.0654
     42 H15         4.6850   -1.8900   11.0700 H         1    UNL1     0.0654
     43 H16         7.1060   -1.1730    6.9240 H         1    UNL1     0.0625
     44 H17         4.8370   -3.6740    9.4270 H         1    UNL1     0.0625
     45 H18         4.6570   -2.7730    5.7580 H         1    UNL1     0.0624
     46 H19         7.5120   -4.7300    8.1430 H         1    UNL1     0.0624
     47 H20         4.8100   -4.5520    4.1150 H         1    UNL1     0.0626
     48 H21         7.6650   -6.5090    6.5000 H         1    UNL1     0.0626
@<TRIPOS>UNITY_ATOM_ATTR
3 1
charge -1
7 1
charge 1
@<TRIPOS>BOND
     1     1    13    1
     2     1    15    1
     3     2    11    2
     4     3    14   ar
     5     4    14   ar
     6     5     9    1
     7     5    11   am
     8     6    27    1
     9     7    27    2
    10     8    10    1
    11     8    11    1
    12     8    12    1
    13     9    10    1
    14     9    13    1
    15    12    14    1
    16    15    16   ar
    17    15    17   ar
    18    16    19   ar
    19    17    20   ar
    20    18    19   ar
    21    18    20   ar
    22    18    21    1
    23    21    22   ar
    24    21    23   ar
    25    22    25   ar
    26    23    26   ar
    27    24    25   ar
    28    24    26   ar
    29    24    27    1
    30     5    28    1
    31     6    29    1
    32     6    30    1
    33     7    31    1
    34     7    32    1
    35     8    33    1
    36     9    34    1
    37    10    35    1
    38    10    36    1
    39    12    37    1
    40    12    38    1
    41    13    39    1
    42    13    40    1
    43    16    41    1
    44    17    42    1
    45    19    43    1
    46    20    44    1
    47    22    45    1
    48    23    46    1
    49    25    47    1
    50    26    48    1
