#REMARK Cluster  14 of Poses:  1 Score: -6.26 kcal/mol
@<TRIPOS>MOLECULE
5496659
 60 62 0 0 0
SMALL
GASTEIGER

@<TRIPOS>ATOM
      1 O1          4.7750   -3.1170    6.5480 O.3       1    UNL1    -0.4677
      2 O2          5.7090   -5.2170    6.3620 O.2       1    UNL1    -0.2505
      3 O3          4.5940   -4.1640   11.0940 O.2       1    UNL1    -0.2702
      4 O4         -2.8260  -10.8040   14.2320 O.co2     1    UNL1    -0.6198
      5 N5          5.2510   -5.9150    9.7240 N.am      1    UNL1    -0.3080
      6 N6          6.9850    2.6880    8.7400 N.pl3     1    UNL1    -0.2497
      7 N7          4.8180    2.2950    9.5210 N.2       1    UNL1    -0.2884
      8 N8         -1.8790  -10.0890   13.7700 N.ar      1    UNL1    -0.1774
      9 C9          5.9800   -3.9290    8.4140 C.3       1    UNL1     0.0784
     10 C10         6.3800   -5.2430    9.1220 C.3       1    UNL1     0.0338
     11 C11         7.1380   -2.9100    8.3890 C.3       1    UNL1    -0.0130
     12 C12         7.4800   -5.0310   10.1610 C.3       1    UNL1    -0.0458
     13 C13         6.9470   -1.7820    9.3750 C.ar      1    UNL1    -0.0457
     14 C14         5.4880   -4.1920    6.9940 C.2       1    UNL1     0.3120
     15 C15         6.5940   -0.5110    8.9220 C.ar      1    UNL1    -0.0438
     16 C16         4.4440   -5.3070   10.6730 C.2       1    UNL1     0.2443
     17 C17         7.1250   -2.0110   10.7400 C.ar      1    UNL1    -0.0585
     18 C18         6.4200    0.5310    9.8330 C.ar      1    UNL1     0.0611
     19 C19         3.3400   -6.1410   11.2140 C.ar      1    UNL1     0.0367
     20 C20         6.9510   -0.9690   11.6510 C.ar      1    UNL1    -0.0607
     21 C21         6.5980    0.3020   11.1970 C.ar      1    UNL1    -0.0470
     22 C22         3.1740   -6.2700   12.5930 C.ar      1    UNL1    -0.0491
     23 C23         2.4680   -6.7950   10.3430 C.ar      1    UNL1    -0.0491
     24 C24         1.2660   -7.7070   12.2300 C.ar      1    UNL1    -0.0175
     25 C25         6.0540    1.8570    9.3600 C.2       1    UNL1     0.2662
     26 C26         5.4510   -2.2760    5.6080 C.3       1    UNL1     0.0817
     27 C27         2.1380   -7.0540   13.1010 C.ar      1    UNL1    -0.0533
     28 C28         1.4320   -7.5780   10.8510 C.ar      1    UNL1    -0.0533
     29 C29         0.1920   -8.5210   12.7560 C.ar      1    UNL1    -0.0066
     30 C30        -0.1350   -8.4540   14.1060 C.ar      1    UNL1     0.0111
     31 C31        -0.5150   -9.3710   11.9120 C.ar      1    UNL1     0.0111
     32 C32        -1.1700   -9.2410   14.5990 C.ar      1    UNL1     0.1834
     33 C33        -1.5460  -10.1480   12.4300 C.ar      1    UNL1     0.1834
     34 H1          5.0480   -6.8390    9.4500 H         1    UNL1     0.1493
     35 H2          6.7460    3.6180    8.5210 H         1    UNL1     0.2883
     36 H3          7.8820    2.3460    8.5220 H         1    UNL1     0.2883
     37 H4          4.5680    3.1920    9.2020 H         1    UNL1     0.3009
     38 H5          4.1470    1.7240    9.9600 H         1    UNL1     0.3009
     39 H6          5.1790   -3.5070    8.9840 H         1    UNL1     0.0435
     40 H7          6.7660   -5.8770    8.3520 H         1    UNL1     0.0504
     41 H8          7.2080   -2.4960    7.4050 H         1    UNL1     0.0322
     42 H9          8.0310   -3.4310    8.6640 H         1    UNL1     0.0322
     43 H10         7.1150   -4.3980   10.9430 H         1    UNL1     0.0248
     44 H11         8.3260   -4.5700    9.6950 H         1    UNL1     0.0248
     45 H12         7.7700   -5.9750   10.5720 H         1    UNL1     0.0248
     46 H13         6.4620   -0.3410    7.9120 H         1    UNL1     0.0629
     47 H14         7.3860   -2.9520   11.0750 H         1    UNL1     0.0620
     48 H15         7.0830   -1.1390   12.6600 H         1    UNL1     0.0618
     49 H16         6.4690    1.0730   11.8710 H         1    UNL1     0.0626
     50 H17         3.8190   -5.7870   13.2380 H         1    UNL1     0.0625
     51 H18         2.5910   -6.7000    9.3230 H         1    UNL1     0.0625
     52 H19         4.8080   -1.4690    5.3240 H         1    UNL1     0.0661
     53 H20         5.7100   -2.8480    4.7410 H         1    UNL1     0.0661
     54 H21         6.3400   -1.8840    6.0550 H         1    UNL1     0.0661
     55 H22         2.0150   -7.1490   14.1210 H         1    UNL1     0.0624
     56 H23         0.7870   -8.0620   10.2060 H         1    UNL1     0.0624
     57 H24         0.3860   -7.8250   14.7360 H         1    UNL1     0.0683
     58 H25        -0.2770   -9.4250   10.9090 H         1    UNL1     0.0683
     59 H26        -1.4130   -9.1910   15.6010 H         1    UNL1     0.1389
     60 H27        -2.0710  -10.7780   11.8040 H         1    UNL1     0.1389
@<TRIPOS>UNITY_ATOM_ATTR
4 1
charge -1
7 1
charge 1
8 1
charge 1
@<TRIPOS>BOND
     1     1    14    1
     2     1    26    1
     3     2    14    2
     4     3    16    2
     5     4     8    1
     6     5    10    1
     7     5    16   am
     8     6    25    1
     9     7    25    2
    10     8    32   ar
    11     8    33   ar
    12     9    10    1
    13     9    11    1
    14     9    14    1
    15    10    12    1
    16    11    13    1
    17    13    15   ar
    18    13    17   ar
    19    15    18   ar
    20    16    19    1
    21    17    20   ar
    22    18    21   ar
    23    18    25    1
    24    19    22   ar
    25    19    23   ar
    26    20    21   ar
    27    22    27   ar
    28    23    28   ar
    29    24    27   ar
    30    24    28   ar
    31    24    29    1
    32    29    30   ar
    33    29    31   ar
    34    30    32   ar
    35    31    33   ar
    36     5    34    1
    37     6    35    1
    38     6    36    1
    39     7    37    1
    40     7    38    1
    41     9    39    1
    42    10    40    1
    43    11    41    1
    44    11    42    1
    45    12    43    1
    46    12    44    1
    47    12    45    1
    48    15    46    1
    49    17    47    1
    50    20    48    1
    51    21    49    1
    52    22    50    1
    53    23    51    1
    54    26    52    1
    55    26    53    1
    56    26    54    1
    57    27    55    1
    58    28    56    1
    59    30    57    1
    60    31    58    1
    61    32    59    1
    62    33    60    1
