#REMARK Cluster  12 of Poses:  2 Score: -6.82 kcal/mol
@<TRIPOS>MOLECULE
5496659
 60 62 0 0 0
SMALL
GASTEIGER

@<TRIPOS>ATOM
      1 O1          4.0110    3.6130   11.5010 O.3       1    UNL1    -0.4677
      2 O2          6.0290    3.4520   10.3950 O.2       1    UNL1    -0.2505
      3 O3          7.2430    1.1660    8.7690 O.2       1    UNL1    -0.2702
      4 O4          5.1510   -7.4960    3.3310 O.co2     1    UNL1    -0.6198
      5 N5          6.4800   -0.0680   10.5780 N.am      1    UNL1    -0.3080
      6 N6         -0.5840    0.8760   15.0180 N.pl3     1    UNL1    -0.2497
      7 N7          0.6480    2.3650   16.3310 N.2       1    UNL1    -0.2884
      8 N8          5.3650   -6.5040    4.1010 N.ar      1    UNL1    -0.1774
      9 C9          5.3130    1.6810   11.9090 C.3       1    UNL1     0.0784
     10 C10         6.6430    0.9690   11.5700 C.3       1    UNL1     0.0338
     11 C11         5.1500    1.9090   13.4260 C.3       1    UNL1    -0.0130
     12 C12         7.3320    0.4060   12.8120 C.3       1    UNL1    -0.0458
     13 C13         4.0850    1.0300   14.0390 C.ar      1    UNL1    -0.0457
     14 C14         5.1890    3.0080   11.1680 C.2       1    UNL1     0.3120
     15 C15         2.8790    1.5870   14.4640 C.ar      1    UNL1    -0.0438
     16 C16         6.7990    0.1240    9.2430 C.2       1    UNL1     0.2443
     17 C17         4.3080   -0.3400   14.1820 C.ar      1    UNL1    -0.0585
     18 C18         1.8970    0.7760   15.0320 C.ar      1    UNL1     0.0611
     19 C19         6.5490   -1.0330    8.3440 C.ar      1    UNL1     0.0367
     20 C20         3.3260   -1.1520   14.7500 C.ar      1    UNL1    -0.0607
     21 C21         2.1200   -0.5940   15.1750 C.ar      1    UNL1    -0.0470
     22 C22         6.1520   -0.8180    7.0240 C.ar      1    UNL1    -0.0491
     23 C23         6.7130   -2.3340    8.8200 C.ar      1    UNL1    -0.0491
     24 C24         6.0810   -3.2050    6.6580 C.ar      1    UNL1    -0.0175
     25 C25         0.6400    1.3570   15.4770 C.2       1    UNL1     0.2662
     26 C26         4.0930    4.5850   12.5480 C.3       1    UNL1     0.0817
     27 C27         5.9180   -1.9040    6.1810 C.ar      1    UNL1    -0.0533
     28 C28         6.4780   -3.4200    7.9770 C.ar      1    UNL1    -0.0533
     29 C29         5.8360   -4.3320    5.7840 C.ar      1    UNL1    -0.0066
     30 C30         4.8710   -4.2430    4.7870 C.ar      1    UNL1     0.0111
     31 C31         6.5660   -5.5050    5.9410 C.ar      1    UNL1     0.0111
     32 C32         4.6450   -5.3340    3.9540 C.ar      1    UNL1     0.1834
     33 C33         6.3220   -6.5820    5.0940 C.ar      1    UNL1     0.1834
     34 H1          6.1290   -0.9430   10.8600 H         1    UNL1     0.1493
     35 H2         -0.6100    0.1970   14.3050 H         1    UNL1     0.2883
     36 H3         -1.4230    1.2150   15.4050 H         1    UNL1     0.2883
     37 H4         -0.2020    2.7600   16.6340 H         1    UNL1     0.3009
     38 H5          1.5030    2.7220   16.6650 H         1    UNL1     0.3009
     39 H6          4.5280    1.0300   11.5850 H         1    UNL1     0.0435
     40 H7          7.2730    1.7270   11.1530 H         1    UNL1     0.0504
     41 H8          4.8850    2.9320   13.5920 H         1    UNL1     0.0322
     42 H9          6.0810    1.6600   13.8920 H         1    UNL1     0.0322
     43 H10         6.7180   -0.3550   13.2460 H         1    UNL1     0.0248
     44 H11         7.4840    1.1910   13.5220 H         1    UNL1     0.0248
     45 H12         8.2770   -0.0130   12.5360 H         1    UNL1     0.0248
     46 H13         2.7140    2.6010   14.3590 H         1    UNL1     0.0629
     47 H14         5.2000   -0.7530   13.8670 H         1    UNL1     0.0620
     48 H15         3.4910   -2.1650   14.8550 H         1    UNL1     0.0618
     49 H16         1.3940   -1.1940   15.5950 H         1    UNL1     0.0626
     50 H17         6.0310    0.1440    6.6720 H         1    UNL1     0.0625
     51 H18         7.0070   -2.4920    9.7970 H         1    UNL1     0.0625
     52 H19         3.1210    4.9950   12.7300 H         1    UNL1     0.0661
     53 H20         4.7620    5.3670   12.2580 H         1    UNL1     0.0661
     54 H21         4.4550    4.1180   13.4400 H         1    UNL1     0.0661
     55 H22         5.6240   -1.7450    5.2050 H         1    UNL1     0.0624
     56 H23         6.5980   -4.3820    8.3300 H         1    UNL1     0.0624
     57 H24         4.3260   -3.3750    4.6670 H         1    UNL1     0.0683
     58 H25         7.2840   -5.5770    6.6790 H         1    UNL1     0.0683
     59 H26         3.9290   -5.2680    3.2140 H         1    UNL1     0.1389
     60 H27         6.8630   -7.4520    5.2110 H         1    UNL1     0.1389
@<TRIPOS>UNITY_ATOM_ATTR
4 1
charge -1
7 1
charge 1
8 1
charge 1
@<TRIPOS>BOND
     1     1    14    1
     2     1    26    1
     3     2    14    2
     4     3    16    2
     5     4     8    1
     6     5    10    1
     7     5    16   am
     8     6    25    1
     9     7    25    2
    10     8    32   ar
    11     8    33   ar
    12     9    10    1
    13     9    11    1
    14     9    14    1
    15    10    12    1
    16    11    13    1
    17    13    15   ar
    18    13    17   ar
    19    15    18   ar
    20    16    19    1
    21    17    20   ar
    22    18    21   ar
    23    18    25    1
    24    19    22   ar
    25    19    23   ar
    26    20    21   ar
    27    22    27   ar
    28    23    28   ar
    29    24    27   ar
    30    24    28   ar
    31    24    29    1
    32    29    30   ar
    33    29    31   ar
    34    30    32   ar
    35    31    33   ar
    36     5    34    1
    37     6    35    1
    38     6    36    1
    39     7    37    1
    40     7    38    1
    41     9    39    1
    42    10    40    1
    43    11    41    1
    44    11    42    1
    45    12    43    1
    46    12    44    1
    47    12    45    1
    48    15    46    1
    49    17    47    1
    50    20    48    1
    51    21    49    1
    52    22    50    1
    53    23    51    1
    54    26    52    1
    55    26    53    1
    56    26    54    1
    57    27    55    1
    58    28    56    1
    59    30    57    1
    60    31    58    1
    61    32    59    1
    62    33    60    1
