#REMARK Cluster  16 of Poses:  1 Score: -5.74 kcal/mol
@<TRIPOS>MOLECULE
5496659
 60 62 0 0 0
SMALL
GASTEIGER

@<TRIPOS>ATOM
      1 O1          2.4840   -5.8820   11.4680 O.3       1    UNL1    -0.4677
      2 O2          3.9310   -5.0530   13.0610 O.2       1    UNL1    -0.2505
      3 O3          4.7620   -1.8620    8.2000 O.2       1    UNL1    -0.2702
      4 O4         11.2500    5.9800   10.5240 O.co2     1    UNL1    -0.6198
      5 N5          4.3970   -1.9260   10.4890 N.am      1    UNL1    -0.3080
      6 N6          7.4960   -6.0630    5.2640 N.pl3     1    UNL1    -0.2497
      7 N7          5.7360   -4.6310    5.8220 N.2       1    UNL1    -0.2884
      8 N8         10.4330    5.0150   10.3690 N.ar      1    UNL1    -0.1774
      9 C9          4.1640   -4.3930   10.7260 C.3       1    UNL1     0.0784
     10 C10         3.4690   -3.0330   10.4800 C.3       1    UNL1     0.0338
     11 C11         5.6820   -4.2330   10.9540 C.3       1    UNL1    -0.0130
     12 C12         2.3330   -2.7760   11.4690 C.3       1    UNL1    -0.0458
     13 C13         6.5080   -4.9910    9.9400 C.ar      1    UNL1    -0.0457
     14 C14         3.5370   -5.1310   11.9040 C.2       1    UNL1     0.3120
     15 C15         6.2440   -4.8490    8.5780 C.ar      1    UNL1    -0.0438
     16 C16         4.9720   -1.4290    9.3300 C.2       1    UNL1     0.2443
     17 C17         7.5330   -5.8350   10.3680 C.ar      1    UNL1    -0.0585
     18 C18         7.0050   -5.5510    7.6440 C.ar      1    UNL1     0.0611
     19 C19         5.9260   -0.3040    9.5110 C.ar      1    UNL1     0.0367
     20 C20         8.2940   -6.5370    9.4330 C.ar      1    UNL1    -0.0607
     21 C21         8.0300   -6.3940    8.0710 C.ar      1    UNL1    -0.0470
     22 C22         7.2970   -0.5550    9.5650 C.ar      1    UNL1    -0.0491
     23 C23         5.4500    1.0020    9.6260 C.ar      1    UNL1    -0.0491
     24 C24         7.7170    1.8080    9.8500 C.ar      1    UNL1    -0.0175
     25 C25         6.7290   -5.4040    6.2230 C.2       1    UNL1     0.2662
     26 C26         2.1530   -7.0100   12.2840 C.3       1    UNL1     0.0817
     27 C27         8.1920    0.5020    9.7350 C.ar      1    UNL1    -0.0533
     28 C28         6.3460    2.0580    9.7960 C.ar      1    UNL1    -0.0533
     29 C29         8.6440    2.9040   10.0270 C.ar      1    UNL1    -0.0066
     30 C30         9.9950    2.7240    9.7470 C.ar      1    UNL1     0.0111
     31 C31         8.1870    4.1370   10.4790 C.ar      1    UNL1     0.0111
     32 C32        10.8770    3.7860    9.9220 C.ar      1    UNL1     0.1834
     33 C33         9.0900    5.1820   10.6450 C.ar      1    UNL1     0.1834
     34 H1          4.6300   -1.5100   11.3500 H         1    UNL1     0.1493
     35 H2          8.0670   -6.8210    5.5260 H         1    UNL1     0.2883
     36 H3          7.4670   -5.7700    4.3240 H         1    UNL1     0.2883
     37 H4          5.5470   -4.5300    4.8610 H         1    UNL1     0.3009
     38 H5          5.1840   -4.1540    6.4840 H         1    UNL1     0.3009
     39 H6          4.0200   -4.9730    9.8390 H         1    UNL1     0.0435
     40 H7          3.0490   -3.1010    9.4990 H         1    UNL1     0.0504
     41 H8          5.9210   -4.5970   11.9310 H         1    UNL1     0.0322
     42 H9          5.9160   -3.1940   10.8490 H         1    UNL1     0.0322
     43 H10         2.7320   -2.7040   12.4590 H         1    UNL1     0.0248
     44 H11         1.6320   -3.5820   11.4240 H         1    UNL1     0.0248
     45 H12         1.8410   -1.8600   11.2150 H         1    UNL1     0.0248
     46 H13         5.4850   -4.2250    8.2620 H         1    UNL1     0.0629
     47 H14         7.7280   -5.9400   11.3760 H         1    UNL1     0.0620
     48 H15         9.0530   -7.1610    9.7490 H         1    UNL1     0.0618
     49 H16         8.5930   -6.9140    7.3790 H         1    UNL1     0.0626
     50 H17         7.6490   -1.5210    9.4800 H         1    UNL1     0.0625
     51 H18         4.4360    1.1870    9.5860 H         1    UNL1     0.0625
     52 H19         1.3200   -7.5280   11.8560 H         1    UNL1     0.0661
     53 H20         1.8980   -6.6760   13.2680 H         1    UNL1     0.0661
     54 H21         2.9930   -7.6710   12.3380 H         1    UNL1     0.0661
     55 H22         9.2070    0.3170    9.7750 H         1    UNL1     0.0624
     56 H23         5.9930    3.0240    9.8810 H         1    UNL1     0.0624
     57 H24        10.3390    1.8110    9.4120 H         1    UNL1     0.0683
     58 H25         7.1860    4.2750   10.6890 H         1    UNL1     0.0683
     59 H26        11.8790    3.6520    9.7130 H         1    UNL1     0.1389
     60 H27         8.7500    6.0980   10.9800 H         1    UNL1     0.1389
@<TRIPOS>UNITY_ATOM_ATTR
4 1
charge -1
7 1
charge 1
8 1
charge 1
@<TRIPOS>BOND
     1     1    14    1
     2     1    26    1
     3     2    14    2
     4     3    16    2
     5     4     8    1
     6     5    10    1
     7     5    16   am
     8     6    25    1
     9     7    25    2
    10     8    32   ar
    11     8    33   ar
    12     9    10    1
    13     9    11    1
    14     9    14    1
    15    10    12    1
    16    11    13    1
    17    13    15   ar
    18    13    17   ar
    19    15    18   ar
    20    16    19    1
    21    17    20   ar
    22    18    21   ar
    23    18    25    1
    24    19    22   ar
    25    19    23   ar
    26    20    21   ar
    27    22    27   ar
    28    23    28   ar
    29    24    27   ar
    30    24    28   ar
    31    24    29    1
    32    29    30   ar
    33    29    31   ar
    34    30    32   ar
    35    31    33   ar
    36     5    34    1
    37     6    35    1
    38     6    36    1
    39     7    37    1
    40     7    38    1
    41     9    39    1
    42    10    40    1
    43    11    41    1
    44    11    42    1
    45    12    43    1
    46    12    44    1
    47    12    45    1
    48    15    46    1
    49    17    47    1
    50    20    48    1
    51    21    49    1
    52    22    50    1
    53    23    51    1
    54    26    52    1
    55    26    53    1
    56    26    54    1
    57    27    55    1
    58    28    56    1
    59    30    57    1
    60    31    58    1
    61    32    59    1
    62    33    60    1
