#REMARK Cluster   4 of Poses:  1 Score: -7.62 kcal/mol
@<TRIPOS>MOLECULE
5496659
 60 62 0 0 0
SMALL
GASTEIGER

@<TRIPOS>ATOM
      1 O1          8.6060   -4.2690   10.7960 O.3       1    UNL1    -0.4677
      2 O2          8.4180   -6.0780    9.3790 O.2       1    UNL1    -0.2505
      3 O3          5.9820   -6.7780   11.4500 O.2       1    UNL1    -0.2702
      4 O4         -3.2670  -10.8850   14.0150 O.co2     1    UNL1    -0.6198
      5 N5          4.7870   -4.7990   11.2680 N.am      1    UNL1    -0.3080
      6 N6          6.5800   -7.1860    3.6130 N.pl3     1    UNL1    -0.2497
      7 N7          6.7610   -7.8420    5.8490 N.2       1    UNL1    -0.2884
      8 N8         -2.2000  -10.2700   13.6910 N.ar      1    UNL1    -0.1774
      9 C9          6.5890   -4.4800    9.5810 C.3       1    UNL1     0.0784
     10 C10         5.8990   -3.9680   10.8660 C.3       1    UNL1     0.0338
     11 C11         6.7060   -3.3770    8.5090 C.3       1    UNL1    -0.0130
     12 C12         5.4490   -2.5130   10.7420 C.3       1    UNL1    -0.0458
     13 C13         6.2590   -3.8400    7.1410 C.ar      1    UNL1    -0.0457
     14 C14         7.9670   -5.0580    9.8840 C.2       1    UNL1     0.3120
     15 C15         6.5840   -5.1220    6.6990 C.ar      1    UNL1    -0.0438
     16 C16         4.9280   -6.1530   11.5290 C.2       1    UNL1     0.2443
     17 C17         5.5230   -2.9840    6.3210 C.ar      1    UNL1    -0.0585
     18 C18         6.1730   -5.5490    5.4360 C.ar      1    UNL1     0.0611
     19 C19         3.6840   -6.8730   11.9060 C.ar      1    UNL1     0.0367
     20 C20         5.1130   -3.4110    5.0580 C.ar      1    UNL1    -0.0607
     21 C21         5.4370   -4.6930    4.6150 C.ar      1    UNL1    -0.0470
     22 C22         3.4080   -8.1240   11.3560 C.ar      1    UNL1    -0.0491
     23 C23         2.7930   -6.2970   12.8110 C.ar      1    UNL1    -0.0491
     24 C24         1.3490   -8.2240   12.6150 C.ar      1    UNL1    -0.0175
     25 C25         6.5130   -6.8850    4.9730 C.2       1    UNL1     0.2662
     26 C26         9.3730   -4.9650   11.7830 C.3       1    UNL1     0.0817
     27 C27         2.2400   -8.8000   11.7100 C.ar      1    UNL1    -0.0533
     28 C28         1.6250   -6.9720   13.1660 C.ar      1    UNL1    -0.0533
     29 C29         0.1360   -8.9230   12.9830 C.ar      1    UNL1    -0.0066
     30 C30         0.1100   -9.7180   14.1230 C.ar      1    UNL1     0.0111
     31 C31        -1.0040   -8.8000   12.1960 C.ar      1    UNL1     0.0111
     32 C32        -1.0610  -10.3850   14.4660 C.ar      1    UNL1     0.1834
     33 C33        -2.1630   -9.4780   12.5600 C.ar      1    UNL1     0.1834
     34 H1          3.8970   -4.3880   11.3600 H         1    UNL1     0.1493
     35 H2          6.6060   -8.1250    3.3180 H         1    UNL1     0.2883
     36 H3          6.6000   -6.4600    2.9490 H         1    UNL1     0.2883
     37 H4          6.9910   -8.7470    5.5380 H         1    UNL1     0.3009
     38 H5          6.7160   -7.6500    6.8140 H         1    UNL1     0.3009
     39 H6          5.9670   -5.2580    9.1900 H         1    UNL1     0.0435
     40 H7          6.6440   -4.0230   11.6320 H         1    UNL1     0.0504
     41 H8          7.7280   -3.0670    8.4470 H         1    UNL1     0.0322
     42 H9          6.0640   -2.5730    8.8020 H         1    UNL1     0.0322
     43 H10         4.7020   -2.4340    9.9800 H         1    UNL1     0.0248
     44 H11         6.2890   -1.9010   10.4840 H         1    UNL1     0.0248
     45 H12         5.0430   -2.1850   11.6760 H         1    UNL1     0.0248
     46 H13         7.1280   -5.7550    7.3050 H         1    UNL1     0.0629
     47 H14         5.2830   -2.0360    6.6490 H         1    UNL1     0.0620
     48 H15         4.5690   -2.7780    4.4510 H         1    UNL1     0.0618
     49 H16         5.1340   -5.0090    3.6810 H         1    UNL1     0.0626
     50 H17         4.0680   -8.5510   10.6870 H         1    UNL1     0.0625
     51 H18         2.9970   -5.3710   13.2190 H         1    UNL1     0.0625
     52 H19         9.8300   -4.2590   12.4440 H         1    UNL1     0.0661
     53 H20        10.1320   -5.5450   11.3010 H         1    UNL1     0.0661
     54 H21         8.7300   -5.6130   12.3420 H         1    UNL1     0.0661
     55 H22         2.0360   -9.7260   11.3030 H         1    UNL1     0.0624
     56 H23         0.9650   -6.5460   13.8350 H         1    UNL1     0.0624
     57 H24         0.9540   -9.8130   14.7110 H         1    UNL1     0.0683
     58 H25        -0.9900   -8.2110   11.3490 H         1    UNL1     0.0683
     59 H26        -1.0800  -10.9750   15.3120 H         1    UNL1     0.1389
     60 H27        -3.0090   -9.3860   11.9760 H         1    UNL1     0.1389
@<TRIPOS>UNITY_ATOM_ATTR
4 1
charge -1
7 1
charge 1
8 1
charge 1
@<TRIPOS>BOND
     1     1    14    1
     2     1    26    1
     3     2    14    2
     4     3    16    2
     5     4     8    1
     6     5    10    1
     7     5    16   am
     8     6    25    1
     9     7    25    2
    10     8    32   ar
    11     8    33   ar
    12     9    10    1
    13     9    11    1
    14     9    14    1
    15    10    12    1
    16    11    13    1
    17    13    15   ar
    18    13    17   ar
    19    15    18   ar
    20    16    19    1
    21    17    20   ar
    22    18    21   ar
    23    18    25    1
    24    19    22   ar
    25    19    23   ar
    26    20    21   ar
    27    22    27   ar
    28    23    28   ar
    29    24    27   ar
    30    24    28   ar
    31    24    29    1
    32    29    30   ar
    33    29    31   ar
    34    30    32   ar
    35    31    33   ar
    36     5    34    1
    37     6    35    1
    38     6    36    1
    39     7    37    1
    40     7    38    1
    41     9    39    1
    42    10    40    1
    43    11    41    1
    44    11    42    1
    45    12    43    1
    46    12    44    1
    47    12    45    1
    48    15    46    1
    49    17    47    1
    50    20    48    1
    51    21    49    1
    52    22    50    1
    53    23    51    1
    54    26    52    1
    55    26    53    1
    56    26    54    1
    57    27    55    1
    58    28    56    1
    59    30    57    1
    60    31    58    1
    61    32    59    1
    62    33    60    1
