#REMARK Cluster  15 of Poses:  1 Score: -6.04 kcal/mol
@<TRIPOS>MOLECULE
5496659
 60 62 0 0 0
SMALL
GASTEIGER

@<TRIPOS>ATOM
      1 O1          5.5150    3.3010   10.1750 O.3       1    UNL1    -0.4677
      2 O2          7.5170    4.2130   10.8660 O.2       1    UNL1    -0.2505
      3 O3          6.7670   -1.2210   11.4680 O.2       1    UNL1    -0.2702
      4 O4          5.6730   -7.4000    3.1240 O.co2     1    UNL1    -0.6198
      5 N5          7.8610    0.1880    9.9870 N.am      1    UNL1    -0.3080
      6 N6          2.3980    6.2030   14.0400 N.pl3     1    UNL1    -0.2497
      7 N7          3.8530    6.1430   12.2120 N.2       1    UNL1    -0.2884
      8 N8          5.8680   -6.5620    4.0630 N.ar      1    UNL1    -0.1774
      9 C9          6.9240    1.9340   11.4930 C.3       1    UNL1     0.0784
     10 C10         8.1820    1.2210   10.9440 C.3       1    UNL1     0.0338
     11 C11         6.9810    2.1100   13.0240 C.3       1    UNL1    -0.0130
     12 C12         9.0580    0.6520   12.0590 C.3       1    UNL1    -0.0458
     13 C13         5.6770    2.6040   13.6050 C.ar      1    UNL1    -0.0457
     14 C14         6.7170    3.2870   10.8210 C.2       1    UNL1     0.3120
     15 C15         5.1510    3.8300   13.1970 C.ar      1    UNL1    -0.0438
     16 C16         7.1710   -0.9620   10.3380 C.2       1    UNL1     0.2443
     17 C17         5.0000    1.8360   14.5520 C.ar      1    UNL1    -0.0585
     18 C18         3.9490    4.2870   13.7350 C.ar      1    UNL1     0.0611
     19 C19         6.9430   -1.9400    9.2430 C.ar      1    UNL1     0.0367
     20 C20         3.7970    2.2930   15.0900 C.ar      1    UNL1    -0.0607
     21 C21         3.2710    3.5190   14.6820 C.ar      1    UNL1    -0.0470
     22 C22         7.1980   -3.2950    9.4540 C.ar      1    UNL1    -0.0491
     23 C23         6.4730   -1.5030    8.0040 C.ar      1    UNL1    -0.0491
     24 C24         6.5140   -3.7770    7.1870 C.ar      1    UNL1    -0.0175
     25 C25         3.4010    5.5660   13.3110 C.2       1    UNL1     0.2662
     26 C26         5.0450    2.0270    9.7220 C.3       1    UNL1     0.0817
     27 C27         6.9840   -4.2130    8.4260 C.ar      1    UNL1    -0.0533
     28 C28         6.2590   -2.4220    6.9770 C.ar      1    UNL1    -0.0533
     29 C29         6.2930   -4.7280    6.1200 C.ar      1    UNL1    -0.0066
     30 C30         7.0930   -5.8610    6.0220 C.ar      1    UNL1     0.0111
     31 C31         5.2820   -4.5100    5.1910 C.ar      1    UNL1     0.0111
     32 C32         6.8700   -6.7690    4.9910 C.ar      1    UNL1     0.1834
     33 C33         5.0800   -5.4320    4.1700 C.ar      1    UNL1     0.1834
     34 H1          8.1440    0.3040    9.0510 H         1    UNL1     0.1493
     35 H2          2.2900    6.0120   15.0000 H         1    UNL1     0.2883
     36 H3          1.7970    6.8430   13.5940 H         1    UNL1     0.2883
     37 H4          3.4840    7.0090   11.9230 H         1    UNL1     0.3009
     38 H5          4.5590    5.7080   11.6820 H         1    UNL1     0.3009
     39 H6          6.0910    1.3030   11.2620 H         1    UNL1     0.0435
     40 H7          8.7400    1.9790   10.4350 H         1    UNL1     0.0504
     41 H8          7.7500    2.8170   13.2590 H         1    UNL1     0.0322
     42 H9          7.1820    1.1500   13.4520 H         1    UNL1     0.0322
     43 H10         8.5190   -0.1090   12.5830 H         1    UNL1     0.0248
     44 H11         9.3230    1.4340   12.7390 H         1    UNL1     0.0248
     45 H12         9.9470    0.2320   11.6350 H         1    UNL1     0.0248
     46 H13         5.6520    4.3990   12.4960 H         1    UNL1     0.0629
     47 H14         5.3890    0.9290   14.8540 H         1    UNL1     0.0620
     48 H15         3.2960    1.7240   15.7910 H         1    UNL1     0.0618
     49 H16         2.3810    3.8570   15.0800 H         1    UNL1     0.0626
     50 H17         7.5450   -3.6190   10.3710 H         1    UNL1     0.0625
     51 H18         6.2850   -0.5010    7.8490 H         1    UNL1     0.0625
     52 H19         4.1010    2.1490    9.2320 H         1    UNL1     0.0661
     53 H20         4.9300    1.3710   10.5600 H         1    UNL1     0.0661
     54 H21         5.7520    1.6090    9.0360 H         1    UNL1     0.0661
     55 H22         7.1720   -5.2160    8.5820 H         1    UNL1     0.0624
     56 H23         5.9120   -2.0980    6.0600 H         1    UNL1     0.0624
     57 H24         7.8450   -6.0280    6.7080 H         1    UNL1     0.0683
     58 H25         4.6850   -3.6700    5.2590 H         1    UNL1     0.0683
     59 H26         7.4640   -7.6100    4.9180 H         1    UNL1     0.1389
     60 H27         4.3290   -5.2700    3.4810 H         1    UNL1     0.1389
@<TRIPOS>UNITY_ATOM_ATTR
4 1
charge -1
7 1
charge 1
8 1
charge 1
@<TRIPOS>BOND
     1     1    14    1
     2     1    26    1
     3     2    14    2
     4     3    16    2
     5     4     8    1
     6     5    10    1
     7     5    16   am
     8     6    25    1
     9     7    25    2
    10     8    32   ar
    11     8    33   ar
    12     9    10    1
    13     9    11    1
    14     9    14    1
    15    10    12    1
    16    11    13    1
    17    13    15   ar
    18    13    17   ar
    19    15    18   ar
    20    16    19    1
    21    17    20   ar
    22    18    21   ar
    23    18    25    1
    24    19    22   ar
    25    19    23   ar
    26    20    21   ar
    27    22    27   ar
    28    23    28   ar
    29    24    27   ar
    30    24    28   ar
    31    24    29    1
    32    29    30   ar
    33    29    31   ar
    34    30    32   ar
    35    31    33   ar
    36     5    34    1
    37     6    35    1
    38     6    36    1
    39     7    37    1
    40     7    38    1
    41     9    39    1
    42    10    40    1
    43    11    41    1
    44    11    42    1
    45    12    43    1
    46    12    44    1
    47    12    45    1
    48    15    46    1
    49    17    47    1
    50    20    48    1
    51    21    49    1
    52    22    50    1
    53    23    51    1
    54    26    52    1
    55    26    53    1
    56    26    54    1
    57    27    55    1
    58    28    56    1
    59    30    57    1
    60    31    58    1
    61    32    59    1
    62    33    60    1
