#REMARK Cluster   1 of Poses:  6 Score: -7.32 kcal/mol
@<TRIPOS>MOLECULE
66000
 48 50 0 0 0
SMALL
GASTEIGER

@<TRIPOS>ATOM
      1 O1          5.4050    0.3630   11.0310 O.3       1    UNL1    -0.4901
      2 O2          8.4810    5.0940   11.6330 O.2       1    UNL1    -0.2755
      3 O3         11.7130    4.5670    8.6900 O.co2     1    UNL1    -0.5498
      4 O4         11.1810    2.3770    9.0110 O.co2     1    UNL1    -0.5498
      5 N5          6.6950    3.6140   11.3190 N.am      1    UNL1    -0.3090
      6 N6          7.1560   -7.5670    4.1650 N.pl3     1    UNL1    -0.2497
      7 N7          5.3480   -6.5740    3.0670 N.2       1    UNL1    -0.2884
      8 C8          8.5980    3.2800    9.9990 C.3       1    UNL1     0.0424
      9 C9          6.3850    2.4740   10.4920 C.3       1    UNL1     0.0578
     10 C10         7.3820    2.6120    9.3460 C.3       1    UNL1    -0.0199
     11 C11         7.9600    4.1420   11.0720 C.2       1    UNL1     0.2168
     12 C12         9.4370    4.0800    9.0220 C.3       1    UNL1    -0.0020
     13 C13         6.5450    1.1710   11.2640 C.3       1    UNL1     0.1079
     14 C14        10.8450    3.5480    8.9140 C.2       1    UNL1     0.0425
     15 C15         5.5150   -0.6050   10.0640 C.ar      1    UNL1     0.1206
     16 C16         6.4330   -0.4450    9.0340 C.ar      1    UNL1    -0.0194
     17 C17         4.7050   -1.7330   10.1270 C.ar      1    UNL1    -0.0194
     18 C18         5.7340   -2.5640    8.1060 C.ar      1    UNL1    -0.0177
     19 C19         6.5430   -1.4280    8.0510 C.ar      1    UNL1    -0.0506
     20 C20         4.8160   -2.7160    9.1440 C.ar      1    UNL1    -0.0506
     21 C21         5.8480   -3.5830    7.0860 C.ar      1    UNL1    -0.0178
     22 C22         6.6530   -4.7020    7.3040 C.ar      1    UNL1    -0.0532
     23 C23         5.1520   -3.4490    5.8850 C.ar      1    UNL1    -0.0532
     24 C24         6.0650   -5.5510    5.1200 C.ar      1    UNL1     0.0608
     25 C25         6.7620   -5.6850    6.3210 C.ar      1    UNL1    -0.0465
     26 C26         5.2600   -4.4330    4.9020 C.ar      1    UNL1    -0.0465
     27 C27         6.1790   -6.5760    4.0940 C.2       1    UNL1     0.2662
     28 H1          6.0750    3.9820   11.9900 H         1    UNL1     0.1491
     29 H2          7.2970   -8.0600    5.0060 H         1    UNL1     0.2883
     30 H3          7.7050   -7.7750    3.3750 H         1    UNL1     0.2883
     31 H4          5.4240   -7.2670    2.3720 H         1    UNL1     0.3009
     32 H5          4.6530   -5.8810    2.9970 H         1    UNL1     0.3009
     33 H6          9.3030    2.5740   10.3860 H         1    UNL1     0.0398
     34 H7          5.3720    2.4470   10.1490 H         1    UNL1     0.0532
     35 H8          7.6420    1.6530    8.9480 H         1    UNL1     0.0291
     36 H9          6.9930    3.1750    8.5240 H         1    UNL1     0.0291
     37 H10         9.4770    5.0970    9.3530 H         1    UNL1     0.0332
     38 H11         8.9820    4.0050    8.0560 H         1    UNL1     0.0332
     39 H12         7.4240    0.6590   10.9290 H         1    UNL1     0.0715
     40 H13         6.6410    1.3760   12.3090 H         1    UNL1     0.0715
     41 H14         7.0290    0.3960    8.9960 H         1    UNL1     0.0654
     42 H15         4.0260   -1.8420   10.8970 H         1    UNL1     0.0654
     43 H16         7.2230   -1.3160    7.2830 H         1    UNL1     0.0625
     44 H17         4.2170   -3.5560    9.1850 H         1    UNL1     0.0625
     45 H18         7.1690   -4.8010    8.1920 H         1    UNL1     0.0624
     46 H19         4.5560   -2.6220    5.7230 H         1    UNL1     0.0624
     47 H20         7.3570   -6.5120    6.4820 H         1    UNL1     0.0626
     48 H21         4.7440   -4.3340    4.0140 H         1    UNL1     0.0626
@<TRIPOS>UNITY_ATOM_ATTR
3 1
charge -1
7 1
charge 1
@<TRIPOS>BOND
     1     1    13    1
     2     1    15    1
     3     2    11    2
     4     3    14   ar
     5     4    14   ar
     6     5     9    1
     7     5    11   am
     8     6    27    1
     9     7    27    2
    10     8    10    1
    11     8    11    1
    12     8    12    1
    13     9    10    1
    14     9    13    1
    15    12    14    1
    16    15    16   ar
    17    15    17   ar
    18    16    19   ar
    19    17    20   ar
    20    18    19   ar
    21    18    20   ar
    22    18    21    1
    23    21    22   ar
    24    21    23   ar
    25    22    25   ar
    26    23    26   ar
    27    24    25   ar
    28    24    26   ar
    29    24    27    1
    30     5    28    1
    31     6    29    1
    32     6    30    1
    33     7    31    1
    34     7    32    1
    35     8    33    1
    36     9    34    1
    37    10    35    1
    38    10    36    1
    39    12    37    1
    40    12    38    1
    41    13    39    1
    42    13    40    1
    43    16    41    1
    44    17    42    1
    45    19    43    1
    46    20    44    1
    47    22    45    1
    48    23    46    1
    49    25    47    1
    50    26    48    1
