#REMARK Cluster   7 of Poses:  1 Score: -6.45 kcal/mol
@<TRIPOS>MOLECULE
66000
 48 50 0 0 0
SMALL
GASTEIGER

@<TRIPOS>ATOM
      1 O1          5.5200    1.8320   11.8190 O.3       1    UNL1    -0.4901
      2 O2          1.2400    1.7300   15.0100 O.2       1    UNL1    -0.2755
      3 O3          3.9890    3.0010   19.2920 O.co2     1    UNL1    -0.5498
      4 O4          5.2570    1.5080   18.1340 O.co2     1    UNL1    -0.5498
      5 N5          3.0150    2.4450   13.6630 N.am      1    UNL1    -0.3090
      6 N6          6.1050   -5.4680    4.1070 N.pl3     1    UNL1    -0.2497
      7 N7          6.9720   -6.7600    5.8510 N.2       1    UNL1    -0.2884
      8 C8          3.5280    1.8320   15.8630 C.3       1    UNL1     0.0424
      9 C9          4.4390    2.6430   13.7880 C.3       1    UNL1     0.0578
     10 C10         4.6310    2.7350   15.2980 C.3       1    UNL1    -0.0199
     11 C11         2.4210    1.9910   14.8380 C.2       1    UNL1     0.2168
     12 C12         3.0950    2.2210   17.2630 C.3       1    UNL1    -0.0020
     13 C13         5.2140    1.4930   13.1600 C.3       1    UNL1     0.1079
     14 C14         4.2410    2.1770   18.2430 C.2       1    UNL1     0.0425
     15 C15         5.6530    0.7950   10.9290 C.ar      1    UNL1     0.1206
     16 C16         5.1290   -0.4520   11.2460 C.ar      1    UNL1    -0.0194
     17 C17         6.3100    1.0050    9.7240 C.ar      1    UNL1    -0.0194
     18 C18         5.9230   -1.3040    9.1290 C.ar      1    UNL1    -0.0177
     19 C19         5.2640   -1.5060   10.3420 C.ar      1    UNL1    -0.0506
     20 C20         6.4460   -0.0490    8.8200 C.ar      1    UNL1    -0.0506
     21 C21         6.0640   -2.3970    8.1930 C.ar      1    UNL1    -0.0178
     22 C22         5.2810   -2.4330    7.0380 C.ar      1    UNL1    -0.0532
     23 C23         6.9840   -3.4160    8.4420 C.ar      1    UNL1    -0.0532
     24 C24         6.3390   -4.5040    6.3840 C.ar      1    UNL1     0.0608
     25 C25         5.4190   -3.4860    6.1340 C.ar      1    UNL1    -0.0465
     26 C26         7.1220   -4.4690    7.5380 C.ar      1    UNL1    -0.0465
     27 C27         6.4810   -5.6030    5.4430 C.2       1    UNL1     0.2662
     28 H1          2.5150    2.6150   12.8330 H         1    UNL1     0.1491
     29 H2          6.7220   -5.7430    3.3920 H         1    UNL1     0.2883
     30 H3          5.2220   -5.0960    3.8800 H         1    UNL1     0.2883
     31 H4          7.0690   -7.5060    5.2150 H         1    UNL1     0.3009
     32 H5          7.2410   -6.8770    6.7910 H         1    UNL1     0.3009
     33 H6          3.8440    0.8180   15.9910 H         1    UNL1     0.0398
     34 H7          4.8040    3.5090   13.2770 H         1    UNL1     0.0532
     35 H8          5.5990    2.3770   15.5820 H         1    UNL1     0.0291
     36 H9          4.5710    3.7390   15.6630 H         1    UNL1     0.0291
     37 H10         2.3350    1.5420   17.5900 H         1    UNL1     0.0332
     38 H11         2.7290    3.2250   17.2280 H         1    UNL1     0.0332
     39 H12         6.1190    1.3280   13.7060 H         1    UNL1     0.0715
     40 H13         4.6250    0.6000   13.1850 H         1    UNL1     0.0715
     41 H14         4.6420   -0.5970   12.1440 H         1    UNL1     0.0654
     42 H15         6.6960    1.9360    9.4980 H         1    UNL1     0.0654
     43 H16         4.8770   -2.4340   10.5710 H         1    UNL1     0.0625
     44 H17         6.9330    0.1000    7.9230 H         1    UNL1     0.0625
     45 H18         4.6000   -1.6800    6.8530 H         1    UNL1     0.0624
     46 H19         7.5630   -3.3900    9.2960 H         1    UNL1     0.0624
     47 H20         4.8400   -3.5120    5.2800 H         1    UNL1     0.0626
     48 H21         7.8030   -5.2220    7.7230 H         1    UNL1     0.0626
@<TRIPOS>UNITY_ATOM_ATTR
3 1
charge -1
7 1
charge 1
@<TRIPOS>BOND
     1     1    13    1
     2     1    15    1
     3     2    11    2
     4     3    14   ar
     5     4    14   ar
     6     5     9    1
     7     5    11   am
     8     6    27    1
     9     7    27    2
    10     8    10    1
    11     8    11    1
    12     8    12    1
    13     9    10    1
    14     9    13    1
    15    12    14    1
    16    15    16   ar
    17    15    17   ar
    18    16    19   ar
    19    17    20   ar
    20    18    19   ar
    21    18    20   ar
    22    18    21    1
    23    21    22   ar
    24    21    23   ar
    25    22    25   ar
    26    23    26   ar
    27    24    25   ar
    28    24    26   ar
    29    24    27    1
    30     5    28    1
    31     6    29    1
    32     6    30    1
    33     7    31    1
    34     7    32    1
    35     8    33    1
    36     9    34    1
    37    10    35    1
    38    10    36    1
    39    12    37    1
    40    12    38    1
    41    13    39    1
    42    13    40    1
    43    16    41    1
    44    17    42    1
    45    19    43    1
    46    20    44    1
    47    22    45    1
    48    23    46    1
    49    25    47    1
    50    26    48    1
