#REMARK Cluster   9 of Poses:  1 Score: -6.93 kcal/mol
@<TRIPOS>MOLECULE
5496659
 60 62 0 0 0
SMALL
GASTEIGER

@<TRIPOS>ATOM
      1 O1          4.6200   -6.3530   10.2720 O.3       1    UNL1    -0.4677
      2 O2          6.6540   -7.3510   10.7040 O.2       1    UNL1    -0.2505
      3 O3          5.8320   -4.7630   13.8460 O.2       1    UNL1    -0.2702
      4 O4          0.8110    3.8050   17.0630 O.co2     1    UNL1    -0.6198
      5 N5          6.5140   -3.4180   12.0850 N.am      1    UNL1    -0.3080
      6 N6          5.4870   -6.4810    3.1660 N.pl3     1    UNL1    -0.2497
      7 N7          7.3060   -7.3810    4.3250 N.2       1    UNL1    -0.2884
      8 N8          1.4670    2.8320   16.5690 N.ar      1    UNL1    -0.1774
      9 C9          6.5420   -4.9800   10.1480 C.3       1    UNL1     0.0784
     10 C10         7.2790   -4.4270   11.3890 C.3       1    UNL1     0.0338
     11 C11         7.4510   -5.0100    8.9020 C.3       1    UNL1    -0.0130
     12 C12         8.6680   -3.8910   11.0480 C.3       1    UNL1    -0.0458
     13 C13         6.6830   -4.8250    7.6130 C.ar      1    UNL1    -0.0457
     14 C14         5.9780   -6.3720   10.4130 C.2       1    UNL1     0.3120
     15 C15         6.8560   -5.7260    6.5630 C.ar      1    UNL1    -0.0438
     16 C16         5.8470   -3.6780   13.2710 C.2       1    UNL1     0.2443
     17 C17         5.8030   -3.7510    7.4740 C.ar      1    UNL1    -0.0585
     18 C18         6.1490   -5.5540    5.3730 C.ar      1    UNL1     0.0611
     19 C19         5.0830   -2.5410   13.8480 C.ar      1    UNL1     0.0367
     20 C20         5.0960   -3.5790    6.2840 C.ar      1    UNL1    -0.0607
     21 C21         5.2690   -4.4800    5.2330 C.ar      1    UNL1    -0.0470
     22 C22         5.3370   -2.1200   15.1530 C.ar      1    UNL1    -0.0491
     23 C23         4.1120   -1.8940   13.0830 C.ar      1    UNL1    -0.0491
     24 C24         3.6490   -0.4060   14.9290 C.ar      1    UNL1    -0.0175
     25 C25         6.3290   -6.4920    4.2760 C.2       1    UNL1     0.2662
     26 C26         3.8920   -7.1370   11.2230 C.3       1    UNL1     0.0817
     27 C27         4.6200   -1.0530   15.6940 C.ar      1    UNL1    -0.0533
     28 C28         3.3950   -0.8270   13.6240 C.ar      1    UNL1    -0.0533
     29 C29         2.9040    0.7000   15.4890 C.ar      1    UNL1    -0.0066
     30 C30         1.5190    0.6250   15.5920 C.ar      1    UNL1     0.0111
     31 C31         3.5710    1.8400   15.9250 C.ar      1    UNL1     0.0111
     32 C32         0.8140    1.6950   16.1330 C.ar      1    UNL1     0.1834
     33 C33         2.8430    2.8960   16.4620 C.ar      1    UNL1     0.1834
     34 H1          6.4650   -2.5120   11.7020 H         1    UNL1     0.1493
     35 H2          5.8530   -6.6580    2.2690 H         1    UNL1     0.2883
     36 H3          4.5270   -6.2950    3.2780 H         1    UNL1     0.2883
     37 H4          7.4300   -8.0170    3.5840 H         1    UNL1     0.3009
     38 H5          7.9090   -7.4070    5.1030 H         1    UNL1     0.3009
     39 H6          5.7300   -4.3110    9.9510 H         1    UNL1     0.0435
     40 H7          7.3960   -5.2620   12.0480 H         1    UNL1     0.0504
     41 H8          7.9540   -5.9540    8.8670 H         1    UNL1     0.0322
     42 H9          8.1400   -4.1960    8.9860 H         1    UNL1     0.0322
     43 H10         8.5750   -3.0530   10.3880 H         1    UNL1     0.0248
     44 H11         9.2390   -4.6600   10.5690 H         1    UNL1     0.0248
     45 H12         9.1630   -3.5850   11.9450 H         1    UNL1     0.0248
     46 H13         7.5060   -6.5200    6.6660 H         1    UNL1     0.0629
     47 H14         5.6760   -3.0840    8.2510 H         1    UNL1     0.0620
     48 H15         4.4460   -2.7840    6.1800 H         1    UNL1     0.0618
     49 H16         4.7460   -4.3520    4.3530 H         1    UNL1     0.0626
     50 H17         6.0550   -2.5990   15.7190 H         1    UNL1     0.0625
     51 H18         3.9250   -2.2050   12.1170 H         1    UNL1     0.0625
     52 H19         2.8430   -7.0530   11.0250 H         1    UNL1     0.0661
     53 H20         4.0980   -6.7820   12.2110 H         1    UNL1     0.0661
     54 H21         4.1890   -8.1610   11.1420 H         1    UNL1     0.0661
     55 H22         4.8080   -0.7420   16.6600 H         1    UNL1     0.0624
     56 H23         2.6770   -0.3480   13.0580 H         1    UNL1     0.0624
     57 H24         1.0190   -0.2180   15.2710 H         1    UNL1     0.0683
     58 H25         4.5990    1.9010   15.8510 H         1    UNL1     0.0683
     59 H26        -0.2140    1.6390   16.2090 H         1    UNL1     0.1389
     60 H27         3.3380    3.7420   16.7850 H         1    UNL1     0.1389
@<TRIPOS>UNITY_ATOM_ATTR
4 1
charge -1
7 1
charge 1
8 1
charge 1
@<TRIPOS>BOND
     1     1    14    1
     2     1    26    1
     3     2    14    2
     4     3    16    2
     5     4     8    1
     6     5    10    1
     7     5    16   am
     8     6    25    1
     9     7    25    2
    10     8    32   ar
    11     8    33   ar
    12     9    10    1
    13     9    11    1
    14     9    14    1
    15    10    12    1
    16    11    13    1
    17    13    15   ar
    18    13    17   ar
    19    15    18   ar
    20    16    19    1
    21    17    20   ar
    22    18    21   ar
    23    18    25    1
    24    19    22   ar
    25    19    23   ar
    26    20    21   ar
    27    22    27   ar
    28    23    28   ar
    29    24    27   ar
    30    24    28   ar
    31    24    29    1
    32    29    30   ar
    33    29    31   ar
    34    30    32   ar
    35    31    33   ar
    36     5    34    1
    37     6    35    1
    38     6    36    1
    39     7    37    1
    40     7    38    1
    41     9    39    1
    42    10    40    1
    43    11    41    1
    44    11    42    1
    45    12    43    1
    46    12    44    1
    47    12    45    1
    48    15    46    1
    49    17    47    1
    50    20    48    1
    51    21    49    1
    52    22    50    1
    53    23    51    1
    54    26    52    1
    55    26    53    1
    56    26    54    1
    57    27    55    1
    58    28    56    1
    59    30    57    1
    60    31    58    1
    61    32    59    1
    62    33    60    1
