#REMARK Cluster   6 of Poses:  1 Score: -6.96 kcal/mol
@<TRIPOS>MOLECULE
86566678
 65 68 0 0 0
SMALL
GASTEIGER

@<TRIPOS>ATOM
      1 O1          1.4570   -6.4600   11.8170 O.2       1    UNL1    -0.2685
      2 O2          9.6450   -3.4420   14.9620 O.3       1    UNL1    -0.4945
      3 O3          4.3150   -3.2020   13.9470 O.co2     1    UNL1    -0.5430
      4 O4          5.9050   -2.6320   12.4260 O.co2     1    UNL1    -0.5430
      5 O5          8.4460   -6.6840    9.6920 O.2       1    UNL1    -0.2698
      6 N6          2.2730   -8.6110   12.1070 N.am      1    UNL1    -0.3098
      7 N7          3.8730   -5.3960   12.4530 N.ar      1    UNL1    -0.2403
      8 N8          7.3260   -4.6850    9.1850 N.am      1    UNL1    -0.2815
      9 N9          4.0860   -5.2470    3.5830 N.pl3     1    UNL1    -0.2497
     10 N10         6.1390   -6.2360    3.0670 N.2       1    UNL1    -0.2884
     11 C11         0.2960   -9.2930   13.3270 C.3       1    UNL1    -0.0254
     12 C12        -1.1740   -8.9830   13.4000 C.3       1    UNL1    -0.0485
     13 C13        -0.1710   -8.0020   13.9410 C.3       1    UNL1    -0.0485
     14 C14         1.0000   -9.2880   12.0130 C.3       1    UNL1     0.0148
     15 C15         2.4230   -7.2220   12.0010 C.2       1    UNL1     0.2624
     16 C16         3.7730   -6.6950   12.0920 C.ar      1    UNL1     0.1261
     17 C17         4.8610   -7.5090   11.8170 C.ar      1    UNL1    -0.0306
     18 C18         6.2740   -5.6200   12.2880 C.ar      1    UNL1     0.0101
     19 C19         6.1310   -6.9540   11.9190 C.ar      1    UNL1    -0.0498
     20 C20         5.1240   -4.8910   12.5410 C.ar      1    UNL1     0.0947
     21 C21         7.5980   -5.0400   12.3950 C.ar      1    UNL1    -0.0002
     22 C22         8.4620   -5.0020   11.3000 C.ar      1    UNL1     0.0456
     23 C23         8.0040   -4.5130   13.6210 C.ar      1    UNL1    -0.0109
     24 C24         9.7300   -4.4370   11.4310 C.ar      1    UNL1    -0.0384
     25 C25         5.1760   -3.4880   12.9340 C.2       1    UNL1     0.0905
     26 C26         9.2730   -3.9480   13.7520 C.ar      1    UNL1     0.1278
     27 C27        10.1360   -3.9100   12.6570 C.ar      1    UNL1     0.0169
     28 C28         8.0770   -5.5410   10.0000 C.2       1    UNL1     0.2489
     29 C29        11.4660   -3.3270   12.7700 C.2       1    UNL1    -0.0582
     30 C30         6.8360   -4.9220    7.8770 C.ar      1    UNL1     0.0337
     31 C31         5.8280   -4.1140    7.3520 C.ar      1    UNL1    -0.0397
     32 C32         7.3630   -5.9640    7.1140 C.ar      1    UNL1    -0.0397
     33 C33        10.7670   -4.0490   15.5990 C.3       1    UNL1     0.0788
     34 C34         5.8740   -5.3900    5.3010 C.ar      1    UNL1     0.0609
     35 C35         5.3470   -4.3480    6.0640 C.ar      1    UNL1    -0.0453
     36 C36         6.8820   -6.1980    5.8260 C.ar      1    UNL1    -0.0453
     37 C37        12.5790   -3.9580   13.1940 C.2       1    UNL1    -0.0980
     38 C38         5.3720   -5.6330    3.9580 C.2       1    UNL1     0.2662
     39 H1          3.0800   -9.1560   12.2520 H         1    UNL1     0.1491
     40 H2          7.1100   -3.8060    9.5710 H         1    UNL1     0.1551
     41 H3          3.9610   -4.5500    2.8990 H         1    UNL1     0.2883
     42 H4          3.3030   -5.6700    4.0030 H         1    UNL1     0.2883
     43 H5          5.8010   -6.4010    2.1580 H         1    UNL1     0.3009
     44 H6          7.0500   -6.5190    3.3130 H         1    UNL1     0.3009
     45 H7          0.9150  -10.1040   13.6500 H         1    UNL1     0.0316
     46 H8         -1.8030   -9.5290   14.0700 H         1    UNL1     0.0269
     47 H9         -1.9720   -8.9330   12.6900 H         1    UNL1     0.0269
     48 H10        -0.0010   -7.0760   13.4340 H         1    UNL1     0.0269
     49 H11        -0.0220   -7.5150   14.8820 H         1    UNL1     0.0269
     50 H12         1.1640  -10.2980   11.7010 H         1    UNL1     0.0465
     51 H13         0.3900   -8.7680   11.3040 H         1    UNL1     0.0465
     52 H14         4.7310   -8.4960   11.5450 H         1    UNL1     0.0641
     53 H15         6.9650   -7.5290   11.7230 H         1    UNL1     0.0625
     54 H16         7.3660   -4.5410   14.4310 H         1    UNL1     0.0661
     55 H17        10.3690   -4.4090   10.6200 H         1    UNL1     0.0632
     56 H18        11.5660   -2.3370   12.4990 H         1    UNL1     0.0619
     57 H19         5.4380   -3.3430    7.9170 H         1    UNL1     0.0636
     58 H20         8.1090   -6.5620    7.5030 H         1    UNL1     0.0636
     59 H21        10.9530   -3.5620   16.5340 H         1    UNL1     0.0660
     60 H22        11.6280   -3.9560   14.9710 H         1    UNL1     0.0660
     61 H23        10.5610   -5.0850   15.7720 H         1    UNL1     0.0660
     62 H24         4.6010   -3.7490    5.6750 H         1    UNL1     0.0627
     63 H25         7.2720   -6.9690    5.2620 H         1    UNL1     0.0627
     64 H26        12.5350   -4.9490   13.4770 H         1    UNL1     0.0535
     65 H27        13.4760   -3.4490   13.2360 H         1    UNL1     0.0535
@<TRIPOS>UNITY_ATOM_ATTR
3 1
charge -1
10 1
charge 1
@<TRIPOS>BOND
     1     1    15    2
     2     2    26    1
     3     2    33    1
     4     3    25   ar
     5     4    25   ar
     6     5    28    2
     7     6    14    1
     8     6    15   am
     9     7    16   ar
    10     7    20   ar
    11     8    28   am
    12     8    30    1
    13     9    38    1
    14    10    38    2
    15    11    12    1
    16    11    13    1
    17    11    14    1
    18    12    13    1
    19    15    16    1
    20    16    17   ar
    21    17    19   ar
    22    18    19   ar
    23    18    20   ar
    24    18    21    1
    25    20    25    1
    26    21    22   ar
    27    21    23   ar
    28    22    24   ar
    29    22    28    1
    30    23    26   ar
    31    24    27   ar
    32    26    27   ar
    33    27    29    1
    34    29    37    2
    35    30    31   ar
    36    30    32   ar
    37    31    35   ar
    38    32    36   ar
    39    34    35   ar
    40    34    36   ar
    41    34    38    1
    42     6    39    1
    43     8    40    1
    44     9    41    1
    45     9    42    1
    46    10    43    1
    47    10    44    1
    48    11    45    1
    49    12    46    1
    50    12    47    1
    51    13    48    1
    52    13    49    1
    53    14    50    1
    54    14    51    1
    55    17    52    1
    56    19    53    1
    57    23    54    1
    58    24    55    1
    59    29    56    1
    60    31    57    1
    61    32    58    1
    62    33    59    1
    63    33    60    1
    64    33    61    1
    65    35    62    1
    66    36    63    1
    67    37    64    1
    68    37    65    1
