#REMARK Cluster   5 of Poses:  1 Score: -7.53 kcal/mol
@<TRIPOS>MOLECULE
86566678
 65 68 0 0 0
SMALL
GASTEIGER

@<TRIPOS>ATOM
      1 O1          6.3120   -7.5460   13.2900 O.2       1    UNL1    -0.2685
      2 O2          7.4740    1.8480   12.3550 O.3       1    UNL1    -0.4945
      3 O3          4.1970   -2.4830   13.4230 O.co2     1    UNL1    -0.5430
      4 O4          5.9480   -1.6170   14.5850 O.co2     1    UNL1    -0.5430
      5 O5          4.8220   -3.0340    9.3650 O.2       1    UNL1    -0.2698
      6 N6          8.5140   -7.1290   13.8870 N.am      1    UNL1    -0.3098
      7 N7          6.4360   -4.5520   13.4550 N.ar      1    UNL1    -0.2403
      8 N8          6.7110   -2.7070    8.0120 N.am      1    UNL1    -0.2815
      9 N9          6.7950   -7.9720    4.2080 N.pl3     1    UNL1    -0.2497
     10 N10         5.4060   -6.5210    3.0130 N.2       1    UNL1    -0.2884
     11 C11         9.4120   -9.3410   13.4830 C.3       1    UNL1    -0.0254
     12 C12         8.7530   -9.5970   12.1560 C.3       1    UNL1    -0.0485
     13 C13         8.8000  -10.6840   13.1930 C.3       1    UNL1    -0.0485
     14 C14         8.7780   -8.4240   14.4720 C.3       1    UNL1     0.0148
     15 C15         7.2820   -6.7670   13.3260 C.2       1    UNL1     0.2624
     16 C16         7.1820   -5.4350   12.7550 C.ar      1    UNL1     0.1261
     17 C17         7.8280   -5.1350   11.5670 C.ar      1    UNL1    -0.0306
     18 C18         6.9400   -2.9070   11.7560 C.ar      1    UNL1     0.0101
     19 C19         7.6990   -3.8440   11.0640 C.ar      1    UNL1    -0.0498
     20 C20         6.3340   -3.3080   12.9360 C.ar      1    UNL1     0.0947
     21 C21         6.8040   -1.5610   11.2340 C.ar      1    UNL1    -0.0002
     22 C22         6.2900   -1.3300    9.9580 C.ar      1    UNL1     0.0456
     23 C23         7.1990   -0.4880   12.0320 C.ar      1    UNL1    -0.0109
     24 C24         6.1710   -0.0250    9.4810 C.ar      1    UNL1    -0.0384
     25 C25         5.5190   -2.3950   13.7280 C.2       1    UNL1     0.0905
     26 C26         7.0800    0.8170   11.5550 C.ar      1    UNL1     0.1278
     27 C27         6.5660    1.0490   10.2790 C.ar      1    UNL1     0.0169
     28 C28         5.8660   -2.4230    9.0910 C.2       1    UNL1     0.2489
     29 C29         6.4340    2.4030    9.7580 C.2       1    UNL1    -0.0582
     30 C30         6.5720   -3.7170    7.0280 C.ar      1    UNL1     0.0337
     31 C31         7.2100   -4.9460    7.1950 C.ar      1    UNL1    -0.0397
     32 C32         5.7970   -3.4810    5.8930 C.ar      1    UNL1    -0.0397
     33 C33         6.4530    2.7130   12.8470 C.3       1    UNL1     0.0788
     34 C34         6.2960   -5.7040    5.0900 C.ar      1    UNL1     0.0609
     35 C35         7.0720   -5.9400    6.2260 C.ar      1    UNL1    -0.0453
     36 C36         5.6590   -4.4750    4.9240 C.ar      1    UNL1    -0.0453
     37 C37         7.3890    3.3530    9.7560 C.2       1    UNL1    -0.0980
     38 C38         6.1530   -6.7410    4.0800 C.2       1    UNL1     0.2662
     39 H1          9.2400   -6.4640   13.8830 H         1    UNL1     0.1491
     40 H2          7.5050   -2.1310    7.9260 H         1    UNL1     0.1551
     41 H3          6.6240   -8.6860    3.5520 H         1    UNL1     0.2883
     42 H4          7.4180   -8.1270    4.9540 H         1    UNL1     0.2883
     43 H5          5.3070   -7.2210    2.3280 H         1    UNL1     0.3009
     44 H6          4.9470   -5.6570    2.9030 H         1    UNL1     0.3009
     45 H7         10.3780   -9.0010   13.7950 H         1    UNL1     0.0316
     46 H8          9.3480   -9.6770   11.2700 H         1    UNL1     0.0269
     47 H9          7.9780   -9.1220   11.5920 H         1    UNL1     0.0269
     48 H10         7.9040  -10.9820   13.6960 H         1    UNL1     0.0269
     49 H11         9.1490  -11.6950   13.2140 H         1    UNL1     0.0269
     50 H12         7.8550   -8.8520   14.8030 H         1    UNL1     0.0465
     51 H13         9.4490   -8.2940   15.2940 H         1    UNL1     0.0465
     52 H14         8.3870   -5.8460   11.0700 H         1    UNL1     0.0641
     53 H15         8.1660   -3.5830   10.1820 H         1    UNL1     0.0625
     54 H16         7.5800   -0.6590   12.9760 H         1    UNL1     0.0661
     55 H17         5.7910    0.1470    8.5370 H         1    UNL1     0.0632
     56 H18         5.5200    2.6590    9.3520 H         1    UNL1     0.0619
     57 H19         7.7840   -5.1210    8.0340 H         1    UNL1     0.0636
     58 H20         5.3250   -2.5720    5.7700 H         1    UNL1     0.0636
     59 H21         6.8930    3.4740   13.4570 H         1    UNL1     0.0660
     60 H22         5.7560    2.1470   13.4290 H         1    UNL1     0.0660
     61 H23         5.9430    3.1670   12.0230 H         1    UNL1     0.0660
     62 H24         7.5430   -6.8500    6.3490 H         1    UNL1     0.0627
     63 H25         5.0850   -4.3010    4.0840 H         1    UNL1     0.0627
     64 H26         8.3210    3.1490   10.1500 H         1    UNL1     0.0535
     65 H27         7.1890    4.2850    9.3590 H         1    UNL1     0.0535
@<TRIPOS>UNITY_ATOM_ATTR
3 1
charge -1
10 1
charge 1
@<TRIPOS>BOND
     1     1    15    2
     2     2    26    1
     3     2    33    1
     4     3    25   ar
     5     4    25   ar
     6     5    28    2
     7     6    14    1
     8     6    15   am
     9     7    16   ar
    10     7    20   ar
    11     8    28   am
    12     8    30    1
    13     9    38    1
    14    10    38    2
    15    11    12    1
    16    11    13    1
    17    11    14    1
    18    12    13    1
    19    15    16    1
    20    16    17   ar
    21    17    19   ar
    22    18    19   ar
    23    18    20   ar
    24    18    21    1
    25    20    25    1
    26    21    22   ar
    27    21    23   ar
    28    22    24   ar
    29    22    28    1
    30    23    26   ar
    31    24    27   ar
    32    26    27   ar
    33    27    29    1
    34    29    37    2
    35    30    31   ar
    36    30    32   ar
    37    31    35   ar
    38    32    36   ar
    39    34    35   ar
    40    34    36   ar
    41    34    38    1
    42     6    39    1
    43     8    40    1
    44     9    41    1
    45     9    42    1
    46    10    43    1
    47    10    44    1
    48    11    45    1
    49    12    46    1
    50    12    47    1
    51    13    48    1
    52    13    49    1
    53    14    50    1
    54    14    51    1
    55    17    52    1
    56    19    53    1
    57    23    54    1
    58    24    55    1
    59    29    56    1
    60    31    57    1
    61    32    58    1
    62    33    59    1
    63    33    60    1
    64    33    61    1
    65    35    62    1
    66    36    63    1
    67    37    64    1
    68    37    65    1
