#REMARK Cluster   3 of Poses:  2 Score: -8.62 kcal/mol
@<TRIPOS>MOLECULE
86566678
 65 68 0 0 0
SMALL
GASTEIGER

@<TRIPOS>ATOM
      1 O1          3.5150   -7.5880   11.4710 O.2       1    UNL1    -0.2685
      2 O2          5.0040    1.8580   12.4780 O.3       1    UNL1    -0.4945
      3 O3          6.7320   -4.3070   13.7550 O.co2     1    UNL1    -0.5430
      4 O4          7.3100   -2.6010   12.3690 O.co2     1    UNL1    -0.5430
      5 O5          7.5990   -2.8610    9.2090 O.2       1    UNL1    -0.2698
      6 N6          1.9300   -6.6620   12.8870 N.am      1    UNL1    -0.3098
      7 N7          4.7220   -4.9650   12.3020 N.ar      1    UNL1    -0.2403
      8 N8          5.5480   -2.6910    8.0810 N.am      1    UNL1    -0.2815
      9 N9          5.2050   -6.5760    2.8880 N.pl3     1    UNL1    -0.2497
     10 N10         6.9190   -7.5650    4.1310 N.2       1    UNL1    -0.2884
     11 C11         0.4890   -8.4720   12.1710 C.3       1    UNL1    -0.0254
     12 C12        -0.9970   -8.6370   12.3350 C.3       1    UNL1    -0.0485
     13 C13        -0.1070   -9.8470   12.2940 C.3       1    UNL1    -0.0485
     14 C14         1.3090   -7.9060   13.2800 C.3       1    UNL1     0.0148
     15 C15         3.0070   -6.5810   11.9960 C.2       1    UNL1     0.2624
     16 C16         3.5370   -5.2570   11.7200 C.ar      1    UNL1     0.1261
     17 C17         2.8380   -4.3810   10.9040 C.ar      1    UNL1    -0.0306
     18 C18         4.6080   -2.7900   11.2540 C.ar      1    UNL1     0.0101
     19 C19         3.3910   -3.1260   10.6720 C.ar      1    UNL1    -0.0498
     20 C20         5.2270   -3.7360   12.0540 C.ar      1    UNL1     0.0947
     21 C21         5.1850   -1.4820   11.0130 C.ar      1    UNL1    -0.0002
     22 C22         6.0820   -1.2690    9.9670 C.ar      1    UNL1     0.0456
     23 C23         4.8280   -0.4250   11.8520 C.ar      1    UNL1    -0.0109
     24 C24         6.6220    0.0000    9.7580 C.ar      1    UNL1    -0.0384
     25 C25         6.5040   -3.4730   12.7050 C.2       1    UNL1     0.0905
     26 C26         5.3680    0.8440   11.6430 C.ar      1    UNL1     0.1278
     27 C27         6.2650    1.0570   10.5960 C.ar      1    UNL1     0.0169
     28 C28         6.4810   -2.3450    9.0670 C.2       1    UNL1     0.2489
     29 C29         6.8440    2.3730   10.3600 C.2       1    UNL1    -0.0582
     30 C30         5.6660   -3.6690    7.0640 C.ar      1    UNL1     0.0337
     31 C31         5.1270   -3.4300    5.8000 C.ar      1    UNL1    -0.0397
     32 C32         6.3230   -4.8720    7.3260 C.ar      1    UNL1    -0.0397
     33 C33         6.0230    2.4080   13.3100 C.3       1    UNL1     0.0788
     34 C34         5.9000   -5.5970    5.0610 C.ar      1    UNL1     0.0609
     35 C35         5.2440   -4.3940    4.7980 C.ar      1    UNL1    -0.0453
     36 C36         6.4400   -5.8350    6.3250 C.ar      1    UNL1    -0.0453
     37 C37         7.9200    2.6450    9.5960 C.2       1    UNL1    -0.0980
     38 C38         6.0220   -6.6010    4.0160 C.2       1    UNL1     0.2662
     39 H1          1.5760   -5.8260   13.2660 H         1    UNL1     0.1491
     40 H2          4.7010   -2.1890    8.0970 H         1    UNL1     0.1551
     41 H3          5.5410   -6.9210    2.0290 H         1    UNL1     0.2883
     42 H4          4.2910   -6.2140    2.9490 H         1    UNL1     0.2883
     43 H5          7.0030   -8.2460    3.4250 H         1    UNL1     0.3009
     44 H6          7.5030   -7.6020    4.9220 H         1    UNL1     0.3009
     45 H7          1.1220   -7.9830   11.4600 H         1    UNL1     0.0316
     46 H8         -1.6520   -8.4270   11.5160 H         1    UNL1     0.0269
     47 H9         -1.7290   -8.2590   13.0180 H         1    UNL1     0.0269
     48 H10         0.0550  -10.4230   13.1820 H         1    UNL1     0.0269
     49 H11        -0.0730  -10.7420   11.7080 H         1    UNL1     0.0269
     50 H12         0.6780   -7.7300   14.1260 H         1    UNL1     0.0465
     51 H13         2.0790   -8.6080   13.5240 H         1    UNL1     0.0465
     52 H14         1.9360   -4.6520   10.4820 H         1    UNL1     0.0641
     53 H15         2.8990   -2.4470   10.0700 H         1    UNL1     0.0625
     54 H16         4.1650   -0.5830   12.6270 H         1    UNL1     0.0661
     55 H17         7.2860    0.1570    8.9840 H         1    UNL1     0.0632
     56 H18         6.3860    3.1730   10.8230 H         1    UNL1     0.0619
     57 H19         4.6420   -2.5410    5.6050 H         1    UNL1     0.0636
     58 H20         6.7220   -5.0480    8.2610 H         1    UNL1     0.0636
     59 H21         5.6090    3.1900   13.9120 H         1    UNL1     0.0660
     60 H22         6.8070    2.8050   12.6990 H         1    UNL1     0.0660
     61 H23         6.4180    1.6410   13.9440 H         1    UNL1     0.0660
     62 H24         4.8450   -4.2170    3.8630 H         1    UNL1     0.0627
     63 H25         6.9250   -6.7250    6.5190 H         1    UNL1     0.0627
     64 H26         8.4150    1.8800    9.1110 H         1    UNL1     0.0535
     65 H27         8.2480    3.6180    9.4950 H         1    UNL1     0.0535
@<TRIPOS>UNITY_ATOM_ATTR
3 1
charge -1
10 1
charge 1
@<TRIPOS>BOND
     1     1    15    2
     2     2    26    1
     3     2    33    1
     4     3    25   ar
     5     4    25   ar
     6     5    28    2
     7     6    14    1
     8     6    15   am
     9     7    16   ar
    10     7    20   ar
    11     8    28   am
    12     8    30    1
    13     9    38    1
    14    10    38    2
    15    11    12    1
    16    11    13    1
    17    11    14    1
    18    12    13    1
    19    15    16    1
    20    16    17   ar
    21    17    19   ar
    22    18    19   ar
    23    18    20   ar
    24    18    21    1
    25    20    25    1
    26    21    22   ar
    27    21    23   ar
    28    22    24   ar
    29    22    28    1
    30    23    26   ar
    31    24    27   ar
    32    26    27   ar
    33    27    29    1
    34    29    37    2
    35    30    31   ar
    36    30    32   ar
    37    31    35   ar
    38    32    36   ar
    39    34    35   ar
    40    34    36   ar
    41    34    38    1
    42     6    39    1
    43     8    40    1
    44     9    41    1
    45     9    42    1
    46    10    43    1
    47    10    44    1
    48    11    45    1
    49    12    46    1
    50    12    47    1
    51    13    48    1
    52    13    49    1
    53    14    50    1
    54    14    51    1
    55    17    52    1
    56    19    53    1
    57    23    54    1
    58    24    55    1
    59    29    56    1
    60    31    57    1
    61    32    58    1
    62    33    59    1
    63    33    60    1
    64    33    61    1
    65    35    62    1
    66    36    63    1
    67    37    64    1
    68    37    65    1
