#REMARK Cluster   3 of Poses:  4 Score: -8.21 kcal/mol
@<TRIPOS>MOLECULE
4413
 45 47 0 0 0
SMALL
GASTEIGER

@<TRIPOS>ATOM
      1 O1          6.6020   -1.5520   10.1910 O.3       1    UNL1    -0.4223
      2 O2          4.3930   -2.2690    9.9930 O.2       1    UNL1    -0.2445
      3 N3          3.0250    5.7980   13.0390 N.pl3     1    UNL1    -0.2497
      4 N4          5.2880    6.3780   13.0000 N.2       1    UNL1    -0.2884
      5 N5          7.5320   -6.0860    5.9390 N.pl3     1    UNL1    -0.2464
      6 N6          7.1810   -7.3980    4.0380 N.pl3     1    UNL1    -0.2915
      7 N7          5.4390   -6.1020    4.7430 N.pl3     1    UNL1    -0.2915
      8 C8          5.4830    2.3810   11.0080 C.ar      1    UNL1    -0.0169
      9 C9          5.5060    1.4210   12.0480 C.ar      1    UNL1    -0.0144
     10 C10         5.1050    3.7010   11.3000 C.ar      1    UNL1    -0.0393
     11 C11         5.8840    0.1000   11.7550 C.ar      1    UNL1    -0.0115
     12 C12         4.7530    4.0700   12.5990 C.ar      1    UNL1     0.0614
     13 C13         5.1490    1.8100   13.3490 C.ar      1    UNL1    -0.0531
     14 C14         5.8400    1.9920    9.7070 C.ar      1    UNL1    -0.0505
     15 C15         6.2360   -0.2680   10.4570 C.ar      1    UNL1     0.1326
     16 C16         4.7750    3.1260   13.6220 C.ar      1    UNL1    -0.0464
     17 C17         6.2140    0.6760    9.4340 C.ar      1    UNL1    -0.0186
     18 C18         4.3630    5.4420   12.8860 C.2       1    UNL1     0.2662
     19 C19         6.0900   -3.3340    8.7010 C.ar      1    UNL1     0.0596
     20 C20         5.5730   -2.3510    9.6870 C.2       1    UNL1     0.3444
     21 C21         6.1650   -4.6640    9.0620 C.ar      1    UNL1    -0.0445
     22 C22         6.4770   -2.8870    7.4540 C.ar      1    UNL1    -0.0445
     23 C23         7.0470   -5.1610    6.8680 C.ar      1    UNL1     0.0999
     24 C24         6.6490   -5.5870    8.1350 C.ar      1    UNL1    -0.0224
     25 C25         6.9610   -3.8110    6.5270 C.ar      1    UNL1    -0.0224
     26 C26         6.7420   -6.4890    4.9720 C.cat     1    UNL1     0.3458
     27 H1          2.7590    6.7450   12.9950 H         1    UNL1     0.2883
     28 H2          2.3450    5.1030   13.1920 H         1    UNL1     0.2883
     29 H3          5.0270    7.3070   13.1940 H         1    UNL1     0.3009
     30 H4          6.2390    6.1470   12.8920 H         1    UNL1     0.3009
     31 H5          8.4520   -6.4300    6.0090 H         1    UNL1     0.2647
     32 H6          7.0430   -7.2230    3.0790 H         1    UNL1     0.2546
     33 H7          7.6320   -8.2230    4.3290 H         1    UNL1     0.2546
     34 H8          4.6970   -6.6110    5.1410 H         1    UNL1     0.2546
     35 H9          5.2510   -5.3160    4.1800 H         1    UNL1     0.2546
     36 H10         5.0860    4.4060   10.5470 H         1    UNL1     0.0632
     37 H11         5.9030   -0.6050   12.5090 H         1    UNL1     0.0660
     38 H12         5.1630    1.1140   14.1120 H         1    UNL1     0.0624
     39 H13         5.8260    2.6870    8.9440 H         1    UNL1     0.0625
     40 H14         4.5150    3.4000   14.5820 H         1    UNL1     0.0626
     41 H15         6.4740    0.4020    8.4740 H         1    UNL1     0.0654
     42 H16         5.8690   -4.9700   10.0020 H         1    UNL1     0.0627
     43 H17         6.4110   -1.8870    7.2120 H         1    UNL1     0.0627
     44 H18         6.7120   -6.5860    8.3870 H         1    UNL1     0.0652
     45 H19         7.2550   -3.4960    5.5900 H         1    UNL1     0.0652
@<TRIPOS>UNITY_ATOM_ATTR
4 1
charge 1
5 1
charge 1
@<TRIPOS>BOND
     1     1    15    1
     2     1    20    1
     3     2    20    2
     4     3    18    1
     5     4    18    2
     6     5    23    1
     7     5    26    2
     8     6    26    1
     9     7    26    1
    10     8     9   ar
    11     8    10   ar
    12     8    14   ar
    13     9    11   ar
    14     9    13   ar
    15    10    12   ar
    16    11    15   ar
    17    12    16   ar
    18    12    18    1
    19    13    16   ar
    20    14    17   ar
    21    15    17   ar
    22    19    20    1
    23    19    21   ar
    24    19    22   ar
    25    21    24   ar
    26    22    25   ar
    27    23    24   ar
    28    23    25   ar
    29     3    27    1
    30     3    28    1
    31     4    29    1
    32     4    30    1
    33     5    31    1
    34     6    32    1
    35     6    33    1
    36     7    34    1
    37     7    35    1
    38    10    36    1
    39    11    37    1
    40    13    38    1
    41    14    39    1
    42    16    40    1
    43    17    41    1
    44    21    42    1
    45    22    43    1
    46    24    44    1
    47    25    45    1
