#REMARK Cluster   5 of Poses:  2 Score: -7.57 kcal/mol
@<TRIPOS>MOLECULE
4413
 45 47 0 0 0
SMALL
GASTEIGER

@<TRIPOS>ATOM
      1 O1          5.5990   -1.8480    9.7910 O.3       1    UNL1    -0.4223
      2 O2          7.2410   -3.1680   10.7860 O.2       1    UNL1    -0.2445
      3 N3         10.3040    5.3440    8.4460 N.pl3     1    UNL1    -0.2497
      4 N4          9.4520    5.6560   10.6000 N.2       1    UNL1    -0.2884
      5 N5          6.9820   -5.4160    4.8060 N.pl3     1    UNL1    -0.2464
      6 N6          5.9500   -6.4990    3.0120 N.pl3     1    UNL1    -0.2915
      7 N7          4.6040   -5.7970    4.7150 N.pl3     1    UNL1    -0.2915
      8 C8          7.1510    2.0210    9.7170 C.ar      1    UNL1    -0.0169
      9 C9          8.0210    0.9080    9.6320 C.ar      1    UNL1    -0.0144
     10 C10         7.6910    3.3180    9.6910 C.ar      1    UNL1    -0.0393
     11 C11         7.4820   -0.3890    9.6590 C.ar      1    UNL1    -0.0115
     12 C12         9.0680    3.5140    9.5820 C.ar      1    UNL1     0.0614
     13 C13         9.4050    1.1240    9.5230 C.ar      1    UNL1    -0.0531
     14 C14         5.7680    1.8050    9.8270 C.ar      1    UNL1    -0.0505
     15 C15         6.1050   -0.5850    9.7680 C.ar      1    UNL1     0.1326
     16 C16         9.9230    2.4190    9.4980 C.ar      1    UNL1    -0.0464
     17 C17         5.2500    0.5100    9.8520 C.ar      1    UNL1    -0.0186
     18 C18         9.6100    4.8630    9.5550 C.2       1    UNL1     0.2662
     19 C19         6.6770   -3.5290    8.4980 C.ar      1    UNL1     0.0596
     20 C20         6.5660   -2.8550    9.8170 C.2       1    UNL1     0.3444
     21 C21         7.2710   -4.7730    8.4320 C.ar      1    UNL1    -0.0445
     22 C22         6.1810   -2.8910    7.3800 C.ar      1    UNL1    -0.0445
     23 C23         6.8790   -4.7820    6.0480 C.ar      1    UNL1     0.0999
     24 C24         7.3730   -5.4060    7.1940 C.ar      1    UNL1    -0.0224
     25 C25         6.2830   -3.5240    6.1410 C.ar      1    UNL1    -0.0224
     26 C26         5.8930   -5.8690    4.2330 C.cat     1    UNL1     0.3458
     27 H1         10.5810    4.7250    7.7330 H         1    UNL1     0.2883
     28 H2         10.5160    6.3030    8.3760 H         1    UNL1     0.2883
     29 H3          9.8190    6.5700   10.5840 H         1    UNL1     0.3009
     30 H4          8.9680    5.3330   11.3940 H         1    UNL1     0.3009
     31 H5          7.8580   -5.5220    4.3700 H         1    UNL1     0.2647
     32 H6          5.8920   -7.4800    2.9610 H         1    UNL1     0.2546
     33 H7          6.0500   -5.9680    2.1890 H         1    UNL1     0.2546
     34 H8          3.9400   -6.4730    4.4480 H         1    UNL1     0.2546
     35 H9          4.3470   -5.0700    5.3280 H         1    UNL1     0.2546
     36 H10         7.0620    4.1340    9.7530 H         1    UNL1     0.0632
     37 H11         8.1110   -1.2050    9.5970 H         1    UNL1     0.0660
     38 H12        10.0440    0.3160    9.4600 H         1    UNL1     0.0624
     39 H13         5.1290    2.6120    9.8890 H         1    UNL1     0.0625
     40 H14        10.9410    2.5650    9.4170 H         1    UNL1     0.0626
     41 H15         4.2320    0.3640    9.9320 H         1    UNL1     0.0654
     42 H16         7.6330   -5.2260    9.2850 H         1    UNL1     0.0627
     43 H17         5.7420   -1.9600    7.4580 H         1    UNL1     0.0627
     44 H18         7.8140   -6.3370    7.1250 H         1    UNL1     0.0652
     45 H19         5.9170   -3.0630    5.2940 H         1    UNL1     0.0652
@<TRIPOS>UNITY_ATOM_ATTR
4 1
charge 1
5 1
charge 1
@<TRIPOS>BOND
     1     1    15    1
     2     1    20    1
     3     2    20    2
     4     3    18    1
     5     4    18    2
     6     5    23    1
     7     5    26    2
     8     6    26    1
     9     7    26    1
    10     8     9   ar
    11     8    10   ar
    12     8    14   ar
    13     9    11   ar
    14     9    13   ar
    15    10    12   ar
    16    11    15   ar
    17    12    16   ar
    18    12    18    1
    19    13    16   ar
    20    14    17   ar
    21    15    17   ar
    22    19    20    1
    23    19    21   ar
    24    19    22   ar
    25    21    24   ar
    26    22    25   ar
    27    23    24   ar
    28    23    25   ar
    29     3    27    1
    30     3    28    1
    31     4    29    1
    32     4    30    1
    33     5    31    1
    34     6    32    1
    35     6    33    1
    36     7    34    1
    37     7    35    1
    38    10    36    1
    39    11    37    1
    40    13    38    1
    41    14    39    1
    42    16    40    1
    43    17    41    1
    44    21    42    1
    45    22    43    1
    46    24    44    1
    47    25    45    1
