#REMARK Cluster   1 of Poses: 11 Score: -9.35 kcal/mol
@<TRIPOS>MOLECULE
86566678
 65 68 0 0 0
SMALL
GASTEIGER

@<TRIPOS>ATOM
      1 O1          2.7470   -5.7640   13.6960 O.2       1    UNL1    -0.2685
      2 O2          5.5870    2.6400   11.8220 O.3       1    UNL1    -0.4945
      3 O3          7.7000   -3.6240   12.7140 O.co2     1    UNL1    -0.5430
      4 O4          7.1000   -1.5110   13.2990 O.co2     1    UNL1    -0.5430
      5 O5          7.5960   -2.7630    9.2660 O.2       1    UNL1    -0.2698
      6 N6          3.2670   -6.7770   11.6750 N.am      1    UNL1    -0.3098
      7 N7          4.9960   -4.0870   12.6100 N.ar      1    UNL1    -0.2403
      8 N8          5.8840   -2.2200    7.7560 N.am      1    UNL1    -0.2815
      9 N9          7.1890   -7.3660    4.0140 N.pl3     1    UNL1    -0.2497
     10 N10         5.2730   -6.4920    3.0010 N.2       1    UNL1    -0.2884
     11 C11         3.4050   -9.1500   11.2130 C.3       1    UNL1    -0.0254
     12 C12         3.2220  -10.5940   11.5900 C.3       1    UNL1    -0.0485
     13 C13         4.5470   -9.9210   11.8150 C.3       1    UNL1    -0.0485
     14 C14         2.7260   -8.0780   11.9960 C.3       1    UNL1     0.0148
     15 C15         3.2430   -5.6880   12.5560 C.2       1    UNL1     0.2624
     16 C16         3.8050   -4.4370   12.0770 C.ar      1    UNL1     0.1261
     17 C17         3.1270   -3.6850   11.1310 C.ar      1    UNL1    -0.0306
     18 C18         4.9350   -2.1020   11.2320 C.ar      1    UNL1     0.0101
     19 C19         3.7090   -2.4960   10.7060 C.ar      1    UNL1    -0.0498
     20 C20         5.5310   -2.9250   12.1730 C.ar      1    UNL1     0.0947
     21 C21         5.5440   -0.8620   10.7900 C.ar      1    UNL1    -0.0002
     22 C22         6.3760   -0.8240    9.6720 C.ar      1    UNL1     0.0456
     23 C23         5.2840    0.3070   11.5060 C.ar      1    UNL1    -0.0109
     24 C24         6.9490    0.3820    9.2690 C.ar      1    UNL1    -0.0384
     25 C25         6.8150   -2.5930   12.7790 C.2       1    UNL1     0.0905
     26 C26         5.8560    1.5130   11.1030 C.ar      1    UNL1     0.1278
     27 C27         6.6890    1.5510    9.9850 C.ar      1    UNL1     0.0169
     28 C28         6.6740   -2.0230    8.8950 C.2       1    UNL1     0.2489
     29 C29         7.3000    2.7990    9.5460 C.2       1    UNL1    -0.0582
     30 C30         5.9570   -3.2690    6.8070 C.ar      1    UNL1     0.0337
     31 C31         6.8700   -4.3090    6.9850 C.ar      1    UNL1    -0.0397
     32 C32         5.1170   -3.2610    5.6930 C.ar      1    UNL1    -0.0397
     33 C33         4.7010    3.5870   11.2300 C.3       1    UNL1     0.0788
     34 C34         6.1010   -5.3340    4.9360 C.ar      1    UNL1     0.0609
     35 C35         6.9410   -5.3410    6.0500 C.ar      1    UNL1    -0.0453
     36 C36         5.1880   -4.2940    4.7580 C.ar      1    UNL1    -0.0453
     37 C37         8.3210    3.4410   10.1470 C.2       1    UNL1    -0.0980
     38 C38         6.1760   -6.4110    3.9620 C.2       1    UNL1     0.2662
     39 H1          3.6740   -6.6480   10.7890 H         1    UNL1     0.1491
     40 H2          5.1880   -1.5420    7.5940 H         1    UNL1     0.1551
     41 H3          7.4010   -7.8130    4.8650 H         1    UNL1     0.2883
     42 H4          7.6930   -7.5940    3.1990 H         1    UNL1     0.2883
     43 H5          5.3230   -7.2210    2.3400 H         1    UNL1     0.3009
     44 H6          4.5520   -5.8250    2.9450 H         1    UNL1     0.3009
     45 H7          3.2650   -8.5780   10.3200 H         1    UNL1     0.0316
     46 H8          3.1230  -11.3380   10.8280 H         1    UNL1     0.0269
     47 H9          2.5340  -11.1340   12.2070 H         1    UNL1     0.0269
     48 H10         4.8740   -9.7020   12.8100 H         1    UNL1     0.0269
     49 H11         5.5570  -10.1240   11.5270 H         1    UNL1     0.0269
     50 H12         1.6810   -8.0880   11.7690 H         1    UNL1     0.0465
     51 H13         2.8870   -8.2650   13.0370 H         1    UNL1     0.0465
     52 H14         2.2180   -3.9970   10.7550 H         1    UNL1     0.0641
     53 H15         3.2340   -1.9090   10.0030 H         1    UNL1     0.0625
     54 H16         4.6680    0.2790   12.3340 H         1    UNL1     0.0661
     55 H17         7.5650    0.4100    8.4420 H         1    UNL1     0.0632
     56 H18         6.9140    3.2320    8.6930 H         1    UNL1     0.0619
     57 H19         7.4920   -4.3140    7.8080 H         1    UNL1     0.0636
     58 H20         4.4420   -2.4920    5.5620 H         1    UNL1     0.0636
     59 H21         4.5750    4.4190   11.8920 H         1    UNL1     0.0660
     60 H22         3.7520    3.1260   11.0540 H         1    UNL1     0.0660
     61 H23         5.1100    3.9280   10.3020 H         1    UNL1     0.0660
     62 H24         7.6160   -6.1110    6.1810 H         1    UNL1     0.0627
     63 H25         4.5670   -4.2880    3.9350 H         1    UNL1     0.0627
     64 H26         8.7430    3.0500   11.0040 H         1    UNL1     0.0535
     65 H27         8.6800    4.3240    9.7510 H         1    UNL1     0.0535
@<TRIPOS>UNITY_ATOM_ATTR
3 1
charge -1
10 1
charge 1
@<TRIPOS>BOND
     1     1    15    2
     2     2    26    1
     3     2    33    1
     4     3    25   ar
     5     4    25   ar
     6     5    28    2
     7     6    14    1
     8     6    15   am
     9     7    16   ar
    10     7    20   ar
    11     8    28   am
    12     8    30    1
    13     9    38    1
    14    10    38    2
    15    11    12    1
    16    11    13    1
    17    11    14    1
    18    12    13    1
    19    15    16    1
    20    16    17   ar
    21    17    19   ar
    22    18    19   ar
    23    18    20   ar
    24    18    21    1
    25    20    25    1
    26    21    22   ar
    27    21    23   ar
    28    22    24   ar
    29    22    28    1
    30    23    26   ar
    31    24    27   ar
    32    26    27   ar
    33    27    29    1
    34    29    37    2
    35    30    31   ar
    36    30    32   ar
    37    31    35   ar
    38    32    36   ar
    39    34    35   ar
    40    34    36   ar
    41    34    38    1
    42     6    39    1
    43     8    40    1
    44     9    41    1
    45     9    42    1
    46    10    43    1
    47    10    44    1
    48    11    45    1
    49    12    46    1
    50    12    47    1
    51    13    48    1
    52    13    49    1
    53    14    50    1
    54    14    51    1
    55    17    52    1
    56    19    53    1
    57    23    54    1
    58    24    55    1
    59    29    56    1
    60    31    57    1
    61    32    58    1
    62    33    59    1
    63    33    60    1
    64    33    61    1
    65    35    62    1
    66    36    63    1
    67    37    64    1
    68    37    65    1
