#REMARK Cluster   4 of Poses:  2 Score: -8.01 kcal/mol
@<TRIPOS>MOLECULE
4413
 45 47 0 0 0
SMALL
GASTEIGER

@<TRIPOS>ATOM
      1 O1          5.9610   -1.5330   10.8770 O.3       1    UNL1    -0.4223
      2 O2          7.8580   -0.2930   10.3330 O.2       1    UNL1    -0.2445
      3 N3          7.3540   -7.1560    4.2680 N.pl3     1    UNL1    -0.2497
      4 N4          5.3660   -6.0140    3.8150 N.2       1    UNL1    -0.2884
      5 N5          3.7610    4.1500   12.4160 N.pl3     1    UNL1    -0.2464
      6 N6          3.7260    6.3410   13.2230 N.pl3     1    UNL1    -0.2915
      7 N7          5.7730    5.3960   12.8740 N.pl3     1    UNL1    -0.2915
      8 C8          5.6280   -3.7460    7.3580 C.ar      1    UNL1    -0.0169
      9 C9          6.7350   -3.9450    8.2170 C.ar      1    UNL1    -0.0144
     10 C10         5.5310   -4.4990    6.1770 C.ar      1    UNL1    -0.0393
     11 C11         6.8320   -3.1910    9.3980 C.ar      1    UNL1    -0.0115
     12 C12         6.5110   -5.4360    5.8480 C.ar      1    UNL1     0.0614
     13 C13         7.7120   -4.8920    7.8700 C.ar      1    UNL1    -0.0531
     14 C14         4.6510   -2.7980    7.7050 C.ar      1    UNL1    -0.0505
     15 C15         5.8520   -2.2540    9.7270 C.ar      1    UNL1     0.1326
     16 C16         7.5990   -5.6320    6.6930 C.ar      1    UNL1    -0.0464
     17 C17         4.7640   -2.0580    8.8820 C.ar      1    UNL1    -0.0186
     18 C18         6.3950   -6.2090    4.6210 C.2       1    UNL1     0.2662
     19 C19         5.9340    0.8250   11.1900 C.ar      1    UNL1     0.0596
     20 C20         6.7120   -0.3620   10.7520 C.2       1    UNL1     0.3444
     21 C21         5.6380    0.9700   12.5300 C.ar      1    UNL1    -0.0445
     22 C22         5.5340    1.7460   10.2440 C.ar      1    UNL1    -0.0445
     23 C23         4.4920    3.0320   12.0040 C.ar      1    UNL1     0.0999
     24 C24         4.9090    2.0860   12.9410 C.ar      1    UNL1    -0.0224
     25 C25         4.8050    2.8610   10.6560 C.ar      1    UNL1    -0.0224
     26 C26         4.4070    5.2210   12.8100 C.cat     1    UNL1     0.3458
     27 H1          7.6790   -7.8010    4.9370 H         1    UNL1     0.2883
     28 H2          7.7060   -7.1810    3.3490 H         1    UNL1     0.2883
     29 H3          5.2860   -6.5360    2.9840 H         1    UNL1     0.3009
     30 H4          4.6800   -5.3470    4.0460 H         1    UNL1     0.3009
     31 H5          2.7760    4.1330   12.4110 H         1    UNL1     0.2647
     32 H6          3.7780    6.6310   14.1630 H         1    UNL1     0.2546
     33 H7          3.1850    6.8540   12.5790 H         1    UNL1     0.2546
     34 H8          6.3220    5.2830   12.0640 H         1    UNL1     0.2546
     35 H9          6.2000    5.6330   13.7280 H         1    UNL1     0.2546
     36 H10         4.7260   -4.3590    5.5460 H         1    UNL1     0.0632
     37 H11         7.6370   -3.3310   10.0290 H         1    UNL1     0.0660
     38 H12         8.5220   -5.0420    8.4920 H         1    UNL1     0.0624
     39 H13         3.8410   -2.6480    7.0830 H         1    UNL1     0.0625
     40 H14         8.3230   -6.3250    6.4480 H         1    UNL1     0.0626
     41 H15         4.0390   -1.3650    9.1270 H         1    UNL1     0.0654
     42 H16         5.9500    0.2650   13.2160 H         1    UNL1     0.0627
     43 H17         5.7700    1.6110    9.2480 H         1    UNL1     0.0627
     44 H18         4.6780    2.2120   13.9390 H         1    UNL1     0.0652
     45 H19         4.4970    3.5610    9.9620 H         1    UNL1     0.0652
@<TRIPOS>UNITY_ATOM_ATTR
4 1
charge 1
5 1
charge 1
@<TRIPOS>BOND
     1     1    15    1
     2     1    20    1
     3     2    20    2
     4     3    18    1
     5     4    18    2
     6     5    23    1
     7     5    26    2
     8     6    26    1
     9     7    26    1
    10     8     9   ar
    11     8    10   ar
    12     8    14   ar
    13     9    11   ar
    14     9    13   ar
    15    10    12   ar
    16    11    15   ar
    17    12    16   ar
    18    12    18    1
    19    13    16   ar
    20    14    17   ar
    21    15    17   ar
    22    19    20    1
    23    19    21   ar
    24    19    22   ar
    25    21    24   ar
    26    22    25   ar
    27    23    24   ar
    28    23    25   ar
    29     3    27    1
    30     3    28    1
    31     4    29    1
    32     4    30    1
    33     5    31    1
    34     6    32    1
    35     6    33    1
    36     7    34    1
    37     7    35    1
    38    10    36    1
    39    11    37    1
    40    13    38    1
    41    14    39    1
    42    16    40    1
    43    17    41    1
    44    21    42    1
    45    22    43    1
    46    24    44    1
    47    25    45    1
