#REMARK Cluster   6 of Poses:  1 Score: -7.37 kcal/mol
@<TRIPOS>MOLECULE
4413
 45 47 0 0 0
SMALL
GASTEIGER

@<TRIPOS>ATOM
      1 O1          6.3790   -0.8050    8.3860 O.3       1    UNL1    -0.4223
      2 O2          4.4910   -1.7890    9.3350 O.2       1    UNL1    -0.2445
      3 N3          5.9740    6.2010   13.6630 N.pl3     1    UNL1    -0.2497
      4 N4          6.8610    4.4410   14.9190 N.2       1    UNL1    -0.2884
      5 N5          6.9400   -6.4850    5.7540 N.pl3     1    UNL1    -0.2464
      6 N6          6.5240   -7.9840    4.0110 N.pl3     1    UNL1    -0.2915
      7 N7          5.0680   -6.2430    4.2540 N.pl3     1    UNL1    -0.2915
      8 C8          6.7960    1.8410   11.5810 C.ar      1    UNL1    -0.0169
      9 C9          5.9310    2.1590   10.5080 C.ar      1    UNL1    -0.0144
     10 C10         6.9250    2.7440   12.6500 C.ar      1    UNL1    -0.0393
     11 C11         5.8020    1.2570    9.4390 C.ar      1    UNL1    -0.0115
     12 C12         6.2110    3.9420   12.6600 C.ar      1    UNL1     0.0614
     13 C13         5.2190    3.3700   10.5340 C.ar      1    UNL1    -0.0531
     14 C14         7.5080    0.6310   11.5550 C.ar      1    UNL1    -0.0505
     15 C15         6.5170    0.0590    9.4290 C.ar      1    UNL1     0.1326
     16 C16         5.3590    4.2540   11.6040 C.ar      1    UNL1    -0.0464
     17 C17         7.3680   -0.2540   10.4850 C.ar      1    UNL1    -0.0186
     18 C18         6.3550    4.8650   13.7740 C.2       1    UNL1     0.2662
     19 C19         5.8650   -3.0680    7.8640 C.ar      1    UNL1     0.0596
     20 C20         5.4790   -1.8480    8.6180 C.2       1    UNL1     0.3444
     21 C21         5.9090   -4.2760    8.5290 C.ar      1    UNL1    -0.0445
     22 C22         6.1650   -2.9560    6.5220 C.ar      1    UNL1    -0.0445
     23 C23         6.5770   -5.3360    6.4640 C.ar      1    UNL1     0.0999
     24 C24         6.2690   -5.4230    7.8210 C.ar      1    UNL1    -0.0224
     25 C25         6.5250   -4.1030    5.8140 C.ar      1    UNL1    -0.0224
     26 C26         6.2020   -6.8600    4.7360 C.cat     1    UNL1     0.3458
     27 H1          5.7280    6.7120   14.4680 H         1    UNL1     0.2883
     28 H2          5.9500    6.6340   12.7790 H         1    UNL1     0.2883
     29 H3          6.9590    5.0650   15.6740 H         1    UNL1     0.3009
     30 H4          7.1390    3.5020   15.0160 H         1    UNL1     0.3009
     31 H5          7.7350   -7.0030    6.0130 H         1    UNL1     0.2647
     32 H6          6.0230   -8.2010    3.1910 H         1    UNL1     0.2546
     33 H7          7.2540   -8.5710    4.3120 H         1    UNL1     0.2546
     34 H8          4.1920   -6.4370    4.6590 H         1    UNL1     0.2546
     35 H9          5.1340   -5.6090    3.5040 H         1    UNL1     0.2546
     36 H10         7.5550    2.5180   13.4360 H         1    UNL1     0.0632
     37 H11         5.1730    1.4830    8.6530 H         1    UNL1     0.0660
     38 H12         4.5860    3.6070    9.7540 H         1    UNL1     0.0624
     39 H13         8.1410    0.3930   12.3340 H         1    UNL1     0.0625
     40 H14         4.8310    5.1410   11.6130 H         1    UNL1     0.0626
     41 H15         7.8960   -1.1400   10.4760 H         1    UNL1     0.0654
     42 H16         5.6790   -4.3310    9.5340 H         1    UNL1     0.0627
     43 H17         6.1240   -2.0390    6.0500 H         1    UNL1     0.0627
     44 H18         6.3070   -6.3350    8.3020 H         1    UNL1     0.0652
     45 H19         6.7530   -4.0390    4.8100 H         1    UNL1     0.0652
@<TRIPOS>UNITY_ATOM_ATTR
4 1
charge 1
5 1
charge 1
@<TRIPOS>BOND
     1     1    15    1
     2     1    20    1
     3     2    20    2
     4     3    18    1
     5     4    18    2
     6     5    23    1
     7     5    26    2
     8     6    26    1
     9     7    26    1
    10     8     9   ar
    11     8    10   ar
    12     8    14   ar
    13     9    11   ar
    14     9    13   ar
    15    10    12   ar
    16    11    15   ar
    17    12    16   ar
    18    12    18    1
    19    13    16   ar
    20    14    17   ar
    21    15    17   ar
    22    19    20    1
    23    19    21   ar
    24    19    22   ar
    25    21    24   ar
    26    22    25   ar
    27    23    24   ar
    28    23    25   ar
    29     3    27    1
    30     3    28    1
    31     4    29    1
    32     4    30    1
    33     5    31    1
    34     6    32    1
    35     6    33    1
    36     7    34    1
    37     7    35    1
    38    10    36    1
    39    11    37    1
    40    13    38    1
    41    14    39    1
    42    16    40    1
    43    17    41    1
    44    21    42    1
    45    22    43    1
    46    24    44    1
    47    25    45    1
