#REMARK Cluster   2 of Poses:  3 Score: -8.77 kcal/mol
@<TRIPOS>MOLECULE
86566678
 65 68 0 0 0
SMALL
GASTEIGER

@<TRIPOS>ATOM
      1 O1          6.2720   -7.4520   13.6030 O.2       1    UNL1    -0.2685
      2 O2          6.8500    1.5980   12.8670 O.3       1    UNL1    -0.4945
      3 O3          2.5960   -3.8630   11.0810 O.co2     1    UNL1    -0.5430
      4 O4          3.3370   -1.8010   11.6840 O.co2     1    UNL1    -0.5430
      5 O5          4.2180   -2.1780    8.5640 O.2       1    UNL1    -0.2698
      6 N6          5.1780   -7.8570   11.5990 N.am      1    UNL1    -0.3098
      7 N7          4.7630   -4.9660   12.0000 N.ar      1    UNL1    -0.2403
      8 N8          6.4740   -2.7410    8.2470 N.am      1    UNL1    -0.2815
      9 N9          5.4150   -6.4530    3.0230 N.pl3     1    UNL1    -0.2497
     10 N10         6.9610   -7.7260    4.2270 N.2       1    UNL1    -0.2884
     11 C11         3.6730   -9.7160   11.2180 C.3       1    UNL1    -0.0254
     12 C12         2.4710   -9.9060   12.1010 C.3       1    UNL1    -0.0485
     13 C13         3.1520  -11.0990   11.4930 C.3       1    UNL1    -0.0485
     14 C14         4.9710   -9.2720   11.8040 C.3       1    UNL1     0.0148
     15 C15         5.8240   -7.0260   12.5240 C.2       1    UNL1     0.2624
     16 C16         5.9330   -5.6180   12.1830 C.ar      1    UNL1     0.1261
     17 C17         7.1790   -5.0230   12.0640 C.ar      1    UNL1    -0.0306
     18 C18         6.0440   -2.9680   11.5400 C.ar      1    UNL1     0.0101
     19 C19         7.2270   -3.6720   11.7360 C.ar      1    UNL1    -0.0498
     20 C20         4.8490   -3.6550   11.6820 C.ar      1    UNL1     0.0947
     21 C21         6.0920   -1.5600   11.1980 C.ar      1    UNL1    -0.0002
     22 C22         5.7920   -1.1190    9.9090 C.ar      1    UNL1     0.0456
     23 C23         6.4460   -0.6400   12.1860 C.ar      1    UNL1    -0.0109
     24 C24         5.8460    0.2420    9.6080 C.ar      1    UNL1    -0.0384
     25 C25         3.5610   -2.9990   11.4960 C.2       1    UNL1     0.0905
     26 C26         6.5000    0.7210   11.8840 C.ar      1    UNL1     0.1278
     27 C27         6.2000    1.1620   10.5950 C.ar      1    UNL1     0.0169
     28 C28         5.4170   -2.0460    8.8480 C.2       1    UNL1     0.2489
     29 C29         6.2520    2.5780   10.2560 C.2       1    UNL1    -0.0582
     30 C30         6.4140   -3.7130    7.2180 C.ar      1    UNL1     0.0337
     31 C31         5.7420   -3.4300    6.0290 C.ar      1    UNL1    -0.0397
     32 C32         7.0260   -4.9530    7.3950 C.ar      1    UNL1    -0.0397
     33 C33         5.8390    2.4930   13.3260 C.3       1    UNL1     0.0788
     34 C34         6.2960   -5.6280    5.1930 C.ar      1    UNL1     0.0609
     35 C35         5.6830   -4.3880    5.0160 C.ar      1    UNL1    -0.0453
     36 C36         6.9680   -5.9110    6.3820 C.ar      1    UNL1    -0.0453
     37 C37         7.1400    3.1690    9.4330 C.2       1    UNL1    -0.0980
     38 C38         6.2340   -6.6270    4.1370 C.2       1    UNL1     0.2662
     39 H1          4.8480   -7.4540   10.7640 H         1    UNL1     0.1491
     40 H2          7.3740   -2.5260    8.5820 H         1    UNL1     0.1551
     41 H3          5.4490   -7.1000    2.2820 H         1    UNL1     0.2883
     42 H4          4.8020   -5.6840    2.9770 H         1    UNL1     0.2883
     43 H5          6.9210   -8.4030    3.5140 H         1    UNL1     0.3009
     44 H6          7.5440   -7.8680    5.0080 H         1    UNL1     0.3009
     45 H7          3.8830   -9.1470   10.3370 H         1    UNL1     0.0316
     46 H8          1.5020   -9.6090   11.7560 H         1    UNL1     0.0269
     47 H9          2.2070   -9.6100   13.0950 H         1    UNL1     0.0269
     48 H10         3.7120  -11.7690   12.1120 H         1    UNL1     0.0269
     49 H11         2.8380  -11.9230   10.8870 H         1    UNL1     0.0269
     50 H12         4.9680   -9.4770   12.8540 H         1    UNL1     0.0465
     51 H13         5.7620   -9.8050   11.3180 H         1    UNL1     0.0465
     52 H14         8.0440   -5.5650   12.2140 H         1    UNL1     0.0641
     53 H15         8.1360   -3.1950   11.6390 H         1    UNL1     0.0625
     54 H16         6.6680   -0.9670   13.1390 H         1    UNL1     0.0661
     55 H17         5.6250    0.5690    8.6540 H         1    UNL1     0.0632
     56 H18         5.5390    3.1870   10.6880 H         1    UNL1     0.0619
     57 H19         5.2880   -2.5120    5.8980 H         1    UNL1     0.0636
     58 H20         7.5240   -5.1630    8.2750 H         1    UNL1     0.0636
     59 H21         6.2410    3.1230   14.0910 H         1    UNL1     0.0660
     60 H22         5.0180    1.9320   13.7200 H         1    UNL1     0.0660
     61 H23         5.5000    3.0960   12.5090 H         1    UNL1     0.0660
     62 H24         5.1860   -4.1790    4.1360 H         1    UNL1     0.0627
     63 H25         7.4210   -6.8290    6.5130 H         1    UNL1     0.0627
     64 H26         7.8740    2.6050    8.9760 H         1    UNL1     0.0535
     65 H27         7.0870    4.1850    9.2610 H         1    UNL1     0.0535
@<TRIPOS>UNITY_ATOM_ATTR
3 1
charge -1
10 1
charge 1
@<TRIPOS>BOND
     1     1    15    2
     2     2    26    1
     3     2    33    1
     4     3    25   ar
     5     4    25   ar
     6     5    28    2
     7     6    14    1
     8     6    15   am
     9     7    16   ar
    10     7    20   ar
    11     8    28   am
    12     8    30    1
    13     9    38    1
    14    10    38    2
    15    11    12    1
    16    11    13    1
    17    11    14    1
    18    12    13    1
    19    15    16    1
    20    16    17   ar
    21    17    19   ar
    22    18    19   ar
    23    18    20   ar
    24    18    21    1
    25    20    25    1
    26    21    22   ar
    27    21    23   ar
    28    22    24   ar
    29    22    28    1
    30    23    26   ar
    31    24    27   ar
    32    26    27   ar
    33    27    29    1
    34    29    37    2
    35    30    31   ar
    36    30    32   ar
    37    31    35   ar
    38    32    36   ar
    39    34    35   ar
    40    34    36   ar
    41    34    38    1
    42     6    39    1
    43     8    40    1
    44     9    41    1
    45     9    42    1
    46    10    43    1
    47    10    44    1
    48    11    45    1
    49    12    46    1
    50    12    47    1
    51    13    48    1
    52    13    49    1
    53    14    50    1
    54    14    51    1
    55    17    52    1
    56    19    53    1
    57    23    54    1
    58    24    55    1
    59    29    56    1
    60    31    57    1
    61    32    58    1
    62    33    59    1
    63    33    60    1
    64    33    61    1
    65    35    62    1
    66    36    63    1
    67    37    64    1
    68    37    65    1
