#REMARK Cluster   4 of Poses:  1 Score: -8.00 kcal/mol
@<TRIPOS>MOLECULE
86566678
 65 68 0 0 0
SMALL
GASTEIGER

@<TRIPOS>ATOM
      1 O1          4.1740   -7.3820   13.8800 O.2       1    UNL1    -0.2685
      2 O2          8.1880    0.7700   13.1110 O.3       1    UNL1    -0.4945
      3 O3          8.9660   -4.2940   12.3100 O.co2     1    UNL1    -0.5430
      4 O4          8.4890   -4.3630   10.0890 O.co2     1    UNL1    -0.5430
      5 O5          4.4110   -2.3450    9.1290 O.2       1    UNL1    -0.2698
      6 N6          4.5030   -8.0300   11.6780 N.am      1    UNL1    -0.3098
      7 N7          6.2750   -5.6550   11.9950 N.ar      1    UNL1    -0.2403
      8 N8          6.4820   -2.6950    8.0830 N.am      1    UNL1    -0.2815
      9 N9          3.8150   -5.7520    3.0100 N.pl3     1    UNL1    -0.2497
     10 N10         5.9930   -6.6000    3.0090 N.2       1    UNL1    -0.2884
     11 C11         2.5750   -9.4580   12.0080 C.3       1    UNL1    -0.0254
     12 C12         1.9850   -9.9690   13.2930 C.3       1    UNL1    -0.0485
     13 C13         1.8730  -10.7880   12.0380 C.3       1    UNL1    -0.0485
     14 C14         4.0550   -9.3950   11.8360 C.3       1    UNL1     0.0148
     15 C15         4.5350   -7.0980   12.7230 C.2       1    UNL1     0.2624
     16 C16         4.9890   -5.7570   12.3980 C.ar      1    UNL1     0.1261
     17 C17         4.1230   -4.6810   12.5100 C.ar      1    UNL1    -0.0306
     18 C18         5.9270   -3.2730   11.7680 C.ar      1    UNL1     0.0101
     19 C19         4.6090   -3.4190   12.1870 C.ar      1    UNL1    -0.0498
     20 C20         6.7120   -4.4120   11.6900 C.ar      1    UNL1     0.0947
     21 C21         6.4350   -1.9580   11.4310 C.ar      1    UNL1    -0.0002
     22 C22         6.2980   -1.4380   10.1440 C.ar      1    UNL1     0.0456
     23 C23         7.0710   -1.2090   12.4220 C.ar      1    UNL1    -0.0109
     24 C24         6.7970   -0.1690    9.8470 C.ar      1    UNL1    -0.0384
     25 C25         8.1030   -4.3570   11.2600 C.2       1    UNL1     0.0905
     26 C26         7.5690    0.0600   12.1250 C.ar      1    UNL1     0.1278
     27 C27         7.4320    0.5790   10.8380 C.ar      1    UNL1     0.0169
     28 C28         5.6400   -2.1870    9.0790 C.2       1    UNL1     0.2489
     29 C29         7.9470    1.9010   10.5040 C.2       1    UNL1    -0.0582
     30 C30         6.1350   -3.4730    6.9510 C.ar      1    UNL1     0.0337
     31 C31         6.5490   -4.8020    6.8650 C.ar      1    UNL1    -0.0397
     32 C32         5.3800   -2.9090    5.9230 C.ar      1    UNL1    -0.0397
     33 C33         9.6110    0.6970   13.1650 C.3       1    UNL1     0.0788
     34 C34         5.4510   -5.0040    4.7220 C.ar      1    UNL1     0.0609
     35 C35         6.2060   -5.5680    5.7500 C.ar      1    UNL1    -0.0453
     36 C36         5.0380   -3.6750    4.8080 C.ar      1    UNL1    -0.0453
     37 C37         7.4930    2.7090    9.5250 C.2       1    UNL1    -0.0980
     38 C38         5.0950   -5.8030    3.5600 C.2       1    UNL1     0.2662
     39 H1          4.8030   -7.7390   10.7860 H         1    UNL1     0.1491
     40 H2          7.4390   -2.4840    8.1820 H         1    UNL1     0.1551
     41 H3          3.0480   -6.1080    3.5150 H         1    UNL1     0.2883
     42 H4          3.6780   -5.3600    2.1180 H         1    UNL1     0.2883
     43 H5          5.7540   -7.1410    2.2220 H         1    UNL1     0.3009
     44 H6          6.9010   -6.6520    3.3840 H         1    UNL1     0.3009
     45 H7          2.4750   -8.5620   11.4320 H         1    UNL1     0.0316
     46 H8          1.1150   -9.5000   13.7060 H         1    UNL1     0.0269
     47 H9          2.3580  -10.1440   14.2800 H         1    UNL1     0.0269
     48 H10         2.4350  -11.6920   11.9380 H         1    UNL1     0.0269
     49 H11         1.0650  -11.2290   11.4920 H         1    UNL1     0.0269
     50 H12         4.5260   -9.8200   12.6970 H         1    UNL1     0.0465
     51 H13         4.3170   -9.9420   10.9550 H         1    UNL1     0.0465
     52 H14         3.1490   -4.8120   12.8240 H         1    UNL1     0.0641
     53 H15         3.9940   -2.5930   12.2580 H         1    UNL1     0.0625
     54 H16         7.1720   -1.5940   13.3740 H         1    UNL1     0.0661
     55 H17         6.6950    0.2150    8.8950 H         1    UNL1     0.0632
     56 H18         8.7340    2.2520   11.0710 H         1    UNL1     0.0619
     57 H19         7.1080   -5.2190    7.6260 H         1    UNL1     0.0636
     58 H20         5.0740   -1.9260    5.9870 H         1    UNL1     0.0636
     59 H21         9.9680    1.2940   13.9770 H         1    UNL1     0.0660
     60 H22        10.0210    1.0620   12.2460 H         1    UNL1     0.0660
     61 H23         9.9110   -0.3200   13.3100 H         1    UNL1     0.0660
     62 H24         6.5120   -6.5520    5.6870 H         1    UNL1     0.0627
     63 H25         4.4790   -3.2580    4.0480 H         1    UNL1     0.0627
     64 H26         6.7080    2.4060    8.9290 H         1    UNL1     0.0535
     65 H27         7.9320    3.6310    9.3730 H         1    UNL1     0.0535
@<TRIPOS>UNITY_ATOM_ATTR
3 1
charge -1
10 1
charge 1
@<TRIPOS>BOND
     1     1    15    2
     2     2    26    1
     3     2    33    1
     4     3    25   ar
     5     4    25   ar
     6     5    28    2
     7     6    14    1
     8     6    15   am
     9     7    16   ar
    10     7    20   ar
    11     8    28   am
    12     8    30    1
    13     9    38    1
    14    10    38    2
    15    11    12    1
    16    11    13    1
    17    11    14    1
    18    12    13    1
    19    15    16    1
    20    16    17   ar
    21    17    19   ar
    22    18    19   ar
    23    18    20   ar
    24    18    21    1
    25    20    25    1
    26    21    22   ar
    27    21    23   ar
    28    22    24   ar
    29    22    28    1
    30    23    26   ar
    31    24    27   ar
    32    26    27   ar
    33    27    29    1
    34    29    37    2
    35    30    31   ar
    36    30    32   ar
    37    31    35   ar
    38    32    36   ar
    39    34    35   ar
    40    34    36   ar
    41    34    38    1
    42     6    39    1
    43     8    40    1
    44     9    41    1
    45     9    42    1
    46    10    43    1
    47    10    44    1
    48    11    45    1
    49    12    46    1
    50    12    47    1
    51    13    48    1
    52    13    49    1
    53    14    50    1
    54    14    51    1
    55    17    52    1
    56    19    53    1
    57    23    54    1
    58    24    55    1
    59    29    56    1
    60    31    57    1
    61    32    58    1
    62    33    59    1
    63    33    60    1
    64    33    61    1
    65    35    62    1
    66    36    63    1
    67    37    64    1
    68    37    65    1
