#REMARK Cluster   3 of Poses:  1 Score: -7.70 kcal/mol
@<TRIPOS>MOLECULE
64949
 45 46 0 0 0
SMALL
GASTEIGER

@<TRIPOS>ATOM
      1 O1          4.7410   -6.6400   11.2250 O.3       1    UNL1    -0.4918
      2 O2          6.0770   -3.2240    8.6350 O.3       1    UNL1    -0.4918
      3 N3         -0.5490   -8.5050   14.3920 N.pl3     1    UNL1    -0.2497
      4 N4          6.7560   -7.9560    4.3200 N.pl3     1    UNL1    -0.2497
      5 N5         -0.9220   -9.3630   12.2510 N.2       1    UNL1    -0.2884
      6 N6          5.7930   -6.2530    3.0420 N.2       1    UNL1    -0.2884
      7 C7          5.1900   -4.3890   10.5470 C.3       1    UNL1     0.0157
      8 C8          4.6840   -5.7560   10.1140 C.3       1    UNL1     0.0927
      9 C9          4.9430   -3.3280    9.4860 C.3       1    UNL1     0.0927
     10 C10         3.5480   -7.1410   11.6780 C.ar      1    UNL1     0.1205
     11 C11         6.1190   -4.0650    7.5540 C.ar      1    UNL1     0.1205
     12 C12         2.6430   -6.2960   12.3110 C.ar      1    UNL1    -0.0191
     13 C13         6.8240   -5.2600    7.6390 C.ar      1    UNL1    -0.0191
     14 C14         3.2550   -8.4880   11.4980 C.ar      1    UNL1    -0.0191
     15 C15         5.4540   -3.7140    6.3840 C.ar      1    UNL1    -0.0191
     16 C16         1.1280   -8.1560   12.5940 C.ar      1    UNL1     0.0610
     17 C17         6.2010   -5.7720    5.3610 C.ar      1    UNL1     0.0610
     18 C18         1.4290   -6.8060   12.7710 C.ar      1    UNL1    -0.0436
     19 C19         6.8650   -6.1160    6.5380 C.ar      1    UNL1    -0.0436
     20 C20         2.0410   -8.9970   11.9570 C.ar      1    UNL1    -0.0436
     21 C21         5.4950   -4.5710    5.2840 C.ar      1    UNL1    -0.0436
     22 C22        -0.1380   -8.6880   13.0730 C.2       1    UNL1     0.2662
     23 C23         6.2440   -6.6650    4.2140 C.2       1    UNL1     0.2662
     24 H1         -0.1260   -9.0220   15.1160 H         1    UNL1     0.2883
     25 H2         -1.2610   -7.8590   14.6010 H         1    UNL1     0.2883
     26 H3          7.2530   -8.2250    5.1260 H         1    UNL1     0.2883
     27 H4          6.6220   -8.6010    3.5870 H         1    UNL1     0.2883
     28 H5         -1.7790   -9.7240   12.5730 H         1    UNL1     0.3009
     29 H6         -0.6480   -9.5060   11.3160 H         1    UNL1     0.3009
     30 H7          5.8210   -6.8560    2.2650 H         1    UNL1     0.3009
     31 H8          5.4300   -5.3430    2.9470 H         1    UNL1     0.3009
     32 H9          6.2420   -4.4530   10.7340 H         1    UNL1     0.0331
     33 H10         4.6570   -4.1040   11.4290 H         1    UNL1     0.0331
     34 H11         3.6740   -5.6730    9.7710 H         1    UNL1     0.0697
     35 H12         5.2940   -6.1330    9.3190 H         1    UNL1     0.0697
     36 H13         4.0870   -3.6000    8.9040 H         1    UNL1     0.0697
     37 H14         4.7720   -2.3860    9.9620 H         1    UNL1     0.0697
     38 H15         2.8690   -5.2980   12.4400 H         1    UNL1     0.0654
     39 H16         7.3140   -5.5120    8.5110 H         1    UNL1     0.0654
     40 H17         3.9330   -9.1070   11.0260 H         1    UNL1     0.0654
     41 H18         4.9330   -2.8250    6.3300 H         1    UNL1     0.0654
     42 H19         0.7540   -6.1840   13.2420 H         1    UNL1     0.0627
     43 H20         7.3870   -7.0050    6.5950 H         1    UNL1     0.0627
     44 H21         1.8180   -9.9960   11.8270 H         1    UNL1     0.0627
     45 H22         5.0040   -4.3160    4.4130 H         1    UNL1     0.0627
@<TRIPOS>UNITY_ATOM_ATTR
5 1
charge 1
6 1
charge 1
@<TRIPOS>BOND
     1     1     8    1
     2     1    10    1
     3     2     9    1
     4     2    11    1
     5     3    22    1
     6     4    23    1
     7     5    22    2
     8     6    23    2
     9     7     8    1
    10     7     9    1
    11    10    12   ar
    12    10    14   ar
    13    11    13   ar
    14    11    15   ar
    15    12    18   ar
    16    13    19   ar
    17    14    20   ar
    18    15    21   ar
    19    16    18   ar
    20    16    20   ar
    21    16    22    1
    22    17    19   ar
    23    17    21   ar
    24    17    23    1
    25     3    24    1
    26     3    25    1
    27     4    26    1
    28     4    27    1
    29     5    28    1
    30     5    29    1
    31     6    30    1
    32     6    31    1
    33     7    32    1
    34     7    33    1
    35     8    34    1
    36     8    35    1
    37     9    36    1
    38     9    37    1
    39    12    38    1
    40    13    39    1
    41    14    40    1
    42    15    41    1
    43    18    42    1
    44    19    43    1
    45    20    44    1
    46    21    45    1
