#REMARK Cluster   5 of Poses:  1 Score: -8.86 kcal/mol
@<TRIPOS>MOLECULE
*****
 65 68 0 0 0
SMALL
GASTEIGER

@<TRIPOS>ATOM
      1 C1          5.3830   -4.3170    4.3380 C.ar      1    UNL1    -0.0449
      2 C2          5.2580   -3.1330    5.0740 C.ar      1    UNL1    -0.0334
      3 C3          5.8190   -3.0780    6.3620 C.ar      1    UNL1     0.0895
      4 C4          6.4520   -4.2040    6.8790 C.ar      1    UNL1     0.0673
      5 C5          6.5760   -5.4060    6.1850 C.ar      1    UNL1    -0.0215
      6 C6          6.0340   -5.4210    4.8940 C.ar      1    UNL1     0.0629
      7 C7          6.1830   -6.6480    4.0880 C.2       1    UNL1     0.2662
      8 N8          5.4610   -6.7980    3.0190 N.2       1    UNL1    -0.2884
      9 N9          7.1010   -7.5820    4.5300 N.pl3     1    UNL1    -0.2497
     10 N10         6.8760   -3.8180    8.1230 N.ar      1    UNL1    -0.3378
     11 C11         6.5150   -2.5050    8.3100 C.ar      1    UNL1     0.1428
     12 N12         5.8630   -2.0400    7.2620 N.ar      1    UNL1    -0.2276
     13 C13         6.8130   -1.7780    9.5320 C.ar      1    UNL1     0.0595
     14 C14         6.9460   -2.4930   10.7260 C.ar      1    UNL1    -0.0439
     15 C15         7.2230   -1.8290   11.9250 C.ar      1    UNL1    -0.0372
     16 C16         7.3160   -0.4280   11.9230 C.ar      1    UNL1    -0.0467
     17 C17         7.2090    0.3250   10.7350 C.ar      1    UNL1     0.0281
     18 C18         6.9720   -0.3840    9.5430 C.ar      1    UNL1     0.1353
     19 O19         6.8870    0.2970    8.3550 O.3       1    UNL1    -0.5054
     20 C20         7.4070    1.7910   10.7770 C.ar      1    UNL1     0.0289
     21 C21         8.5430    2.3530   10.1660 C.ar      1    UNL1    -0.0240
     22 C22         8.7910    3.7300   10.2270 C.ar      1    UNL1     0.1058
     23 C23         7.8940    4.5910   10.8460 C.ar      1    UNL1    -0.0319
     24 C24         6.7520    4.0590   11.4400 C.ar      1    UNL1    -0.0177
     25 C25         6.5280    2.6770   11.4220 C.ar      1    UNL1     0.1248
     26 O26         5.3950    2.2160   12.0370 O.3       1    UNL1    -0.5062
     27 S27        10.3060    4.2970    9.5210 S.O2      1    UNL1     0.0560
     28 O28        11.3610    3.5460   10.1740 O.2       1    UNL1    -0.1533
     29 O29        10.1270    4.2510    8.0840 O.2       1    UNL1    -0.1533
     30 N30        10.4230    5.9280   10.0120 N.3       1    UNL1    -0.2035
     31 C31         7.4270   -2.6150   13.1960 C.3       1    UNL1     0.0491
     32 C32         8.8890   -2.8040   13.5610 C.2       1    UNL1     0.2178
     33 O33         9.5890   -1.9460   14.0930 O.2       1    UNL1    -0.2754
     34 N34         9.3350   -4.0750   13.2440 N.am      1    UNL1    -0.3067
     35 C35        10.1830   -4.3310   12.0870 C.3       1    UNL1     0.0676
     36 C36        11.6480   -4.5750   12.4730 C.3       1    UNL1     0.0105
     37 C37        12.5140   -3.3420   12.3420 C.2       1    UNL1     0.0439
     38 O38        12.9270   -2.6500   13.2600 O.co2     1    UNL1    -0.5497
     39 O39        12.7120   -3.0460   11.0310 O.co2     1    UNL1    -0.5497
     40 C40         9.5920   -5.5470   11.4020 C.2       1    UNL1     0.0623
     41 O41         9.1850   -5.5500   10.2470 O.co2     1    UNL1    -0.5479
     42 O42         9.5920   -6.6530   12.1910 O.co2     1    UNL1    -0.5479
     43 H1          4.9940   -4.3740    3.3840 H         1    UNL1     0.0627
     44 H2          4.7640   -2.3170    4.6790 H         1    UNL1     0.0640
     45 H3          7.0370   -6.2320    6.5960 H         1    UNL1     0.0647
     46 H4          4.8230   -6.0970    2.7530 H         1    UNL1     0.3009
     47 H5          5.5530   -7.6130    2.4740 H         1    UNL1     0.3009
     48 H6          7.4990   -8.2210    3.8950 H         1    UNL1     0.2883
     49 H7          7.3580   -7.6080    5.4800 H         1    UNL1     0.2883
     50 H8          7.3560   -4.3830    8.7710 H         1    UNL1     0.1674
     51 H9          6.8390   -3.5190   10.7220 H         1    UNL1     0.0629
     52 H10         7.4680    0.0650   12.8160 H         1    UNL1     0.0628
     53 H11         6.0610    0.3800    7.9210 H         1    UNL1     0.2922
     54 H12         9.2040    1.7400    9.6640 H         1    UNL1     0.0644
     55 H13         8.0710    5.6080   10.8650 H         1    UNL1     0.0638
     56 H14         6.0690    4.6850   11.8950 H         1    UNL1     0.0655
     57 H15         4.5590    2.3360   11.6310 H         1    UNL1     0.2922
     58 H16         9.5580    6.2060   10.4760 H         1    UNL1     0.1442
     59 H17        10.5750    6.5190    9.1950 H         1    UNL1     0.1442
     60 H18         6.9810   -3.5790   13.0730 H         1    UNL1     0.0407
     61 H19         6.9740   -2.0560   13.9880 H         1    UNL1     0.0407
     62 H20         9.0700   -4.8300   13.8170 H         1    UNL1     0.1493
     63 H21        10.2030   -3.4770   11.4430 H         1    UNL1     0.0564
     64 H22        12.0450   -5.3380   11.8370 H         1    UNL1     0.0346
     65 H23        11.6610   -4.8630   13.5040 H         1    UNL1     0.0346
@<TRIPOS>UNITY_ATOM_ATTR
8 1
charge 1
39 1
charge -1
42 1
charge -1
@<TRIPOS>BOND
     1     1     2   ar
     2     1     6   ar
     3     2     3   ar
     4     3     4   ar
     5     3    12   ar
     6     4     5   ar
     7     4    10   ar
     8     5     6   ar
     9     6     7    1
    10     7     8    2
    11     7     9    1
    12    10    11   ar
    13    11    12   ar
    14    11    13    1
    15    13    14   ar
    16    13    18   ar
    17    14    15   ar
    18    15    16   ar
    19    15    31    1
    20    16    17   ar
    21    17    18   ar
    22    17    20    1
    23    18    19    1
    24    20    21   ar
    25    20    25   ar
    26    21    22   ar
    27    22    23   ar
    28    22    27    1
    29    23    24   ar
    30    24    25   ar
    31    25    26    1
    32    27    28    2
    33    27    29    2
    34    27    30    1
    35    31    32    1
    36    32    33    2
    37    32    34   am
    38    34    35    1
    39    35    36    1
    40    35    40    1
    41    36    37    1
    42    37    38   ar
    43    37    39   ar
    44    40    41   ar
    45    40    42   ar
    46     1    43    1
    47     2    44    1
    48     5    45    1
    49     8    46    1
    50     8    47    1
    51     9    48    1
    52     9    49    1
    53    10    50    1
    54    14    51    1
    55    16    52    1
    56    19    53    1
    57    21    54    1
    58    23    55    1
    59    24    56    1
    60    26    57    1
    61    30    58    1
    62    30    59    1
    63    31    60    1
    64    31    61    1
    65    34    62    1
    66    35    63    1
    67    36    64    1
    68    36    65    1
