#REMARK Cluster   3 of Poses:  1 Score: -7.82 kcal/mol
@<TRIPOS>MOLECULE
2536
 52 53 0 0 0
SMALL
GASTEIGER

@<TRIPOS>ATOM
      1 O1          6.6790    5.1920   12.8620 O.3       1    UNL1    -0.4550
      2 O2          6.7810   -0.8400    8.5980 O.3       1    UNL1    -0.4223
      3 O3          8.0180    4.9950   10.9940 O.2       1    UNL1    -0.2505
      4 O4          4.1690    6.1660   12.4370 O.2       1    UNL1    -0.2719
      5 O5          6.2630   -2.3480   10.2980 O.2       1    UNL1    -0.2445
      6 N6          3.4900    5.2510   14.4600 N.am      1    UNL1    -0.3048
      7 N7          5.2380   -5.7570    4.9510 N.pl3     1    UNL1    -0.2464
      8 N8          7.5530   -6.4120    4.7990 N.pl3     1    UNL1    -0.2915
      9 N9          5.9920   -7.3610    3.4300 N.pl3     1    UNL1    -0.2915
     10 C10         7.4930    2.0650   11.4760 C.ar      1    UNL1    -0.0365
     11 C11         7.7510    3.1190   12.5210 C.3       1    UNL1     0.0701
     12 C12         6.2420    1.9800   10.8650 C.ar      1    UNL1    -0.0546
     13 C13         8.5050    1.1730   11.1190 C.ar      1    UNL1    -0.0546
     14 C14         7.0140    0.1130    9.5410 C.ar      1    UNL1     0.1320
     15 C15         6.0030    1.0040    9.8970 C.ar      1    UNL1    -0.0189
     16 C16         8.2660    0.1970   10.1520 C.ar      1    UNL1    -0.0189
     17 C17         7.5260    4.5230   12.0100 C.2       1    UNL1     0.3119
     18 C18         5.5600    4.4670   13.3270 C.3       1    UNL1     0.1682
     19 C19         6.0700   -3.0350    8.0240 C.ar      1    UNL1     0.0596
     20 C20         4.3470    5.3730   13.3670 C.2       1    UNL1     0.2528
     21 C21         6.3660   -2.0700    9.1130 C.2       1    UNL1     0.3444
     22 C22         5.6860   -2.5710    6.7660 C.ar      1    UNL1    -0.0445
     23 C23         6.1770   -4.4060    8.2590 C.ar      1    UNL1    -0.0445
     24 C24         5.5160   -4.8480    5.9770 C.ar      1    UNL1     0.0999
     25 C25         5.4090   -3.4770    5.7420 C.ar      1    UNL1    -0.0224
     26 C26         5.8990   -5.3120    7.2350 C.ar      1    UNL1    -0.0224
     27 C27         3.6590    4.3160   15.5700 C.3       1    UNL1     0.0029
     28 C28         2.3040    6.0960   14.5380 C.3       1    UNL1     0.0029
     29 C29         6.2230   -6.4570    4.4400 C.cat     1    UNL1     0.3458
     30 H1          4.3180   -5.8690    4.6170 H         1    UNL1     0.2647
     31 H2          7.9010   -7.0360    5.4770 H         1    UNL1     0.2546
     32 H3          8.1540   -5.7570    4.3770 H         1    UNL1     0.2546
     33 H4          5.5600   -7.0670    2.5960 H         1    UNL1     0.2546
     34 H5          6.2590   -8.3020    3.5420 H         1    UNL1     0.2546
     35 H6          8.7660    3.0340   12.8480 H         1    UNL1     0.0426
     36 H7          7.0580    2.9550   13.3200 H         1    UNL1     0.0426
     37 H8          5.4930    2.6400   11.1280 H         1    UNL1     0.0622
     38 H9          9.4300    1.2360   11.5710 H         1    UNL1     0.0622
     39 H10         5.0770    0.9420    9.4460 H         1    UNL1     0.0654
     40 H11         9.0140   -0.4630    9.8880 H         1    UNL1     0.0654
     41 H12         5.7600    4.0960   14.3100 H         1    UNL1     0.0796
     42 H13         5.3690    3.6480   12.6660 H         1    UNL1     0.0796
     43 H14         5.6080   -1.5570    6.5920 H         1    UNL1     0.0627
     44 H15         6.4600   -4.7500    9.1890 H         1    UNL1     0.0627
     45 H16         5.1260   -3.1340    4.8120 H         1    UNL1     0.0652
     46 H17         5.9780   -6.3270    7.4090 H         1    UNL1     0.0652
     47 H18         4.5520    3.7450   15.4210 H         1    UNL1     0.0428
     48 H19         2.8180    3.6570   15.6130 H         1    UNL1     0.0428
     49 H20         3.7330    4.8610   16.4870 H         1    UNL1     0.0428
     50 H21         2.2690    6.7410   13.6860 H         1    UNL1     0.0428
     51 H22         2.3440    6.6850   15.4310 H         1    UNL1     0.0428
     52 H23         1.4290    5.4810   14.5560 H         1    UNL1     0.0428
@<TRIPOS>UNITY_ATOM_ATTR
7 1
charge 1
@<TRIPOS>BOND
     1     1    17    1
     2     1    18    1
     3     2    14    1
     4     2    21    1
     5     3    17    2
     6     4    20    2
     7     5    21    2
     8     6    20   am
     9     6    27    1
    10     6    28    1
    11     7    24    1
    12     7    29    2
    13     8    29    1
    14     9    29    1
    15    10    11    1
    16    10    12   ar
    17    10    13   ar
    18    11    17    1
    19    12    15   ar
    20    13    16   ar
    21    14    15   ar
    22    14    16   ar
    23    18    20    1
    24    19    21    1
    25    19    22   ar
    26    19    23   ar
    27    22    25   ar
    28    23    26   ar
    29    24    25   ar
    30    24    26   ar
    31     7    30    1
    32     8    31    1
    33     8    32    1
    34     9    33    1
    35     9    34    1
    36    11    35    1
    37    11    36    1
    38    12    37    1
    39    13    38    1
    40    15    39    1
    41    16    40    1
    42    18    41    1
    43    18    42    1
    44    22    43    1
    45    23    44    1
    46    25    45    1
    47    26    46    1
    48    27    47    1
    49    27    48    1
    50    27    49    1
    51    28    50    1
    52    28    51    1
    53    28    52    1
