#REMARK Cluster  12 of Poses:  1 Score: -6.15 kcal/mol
@<TRIPOS>MOLECULE
2536
 52 53 0 0 0
SMALL
GASTEIGER

@<TRIPOS>ATOM
      1 O1          6.4160   -4.3040    9.1110 O.3       1    UNL1    -0.4550
      2 O2          6.1660    2.1720    9.0170 O.3       1    UNL1    -0.4223
      3 O3          8.2510   -4.4970   10.4950 O.2       1    UNL1    -0.2505
      4 O4          5.3900   -2.7960    6.8750 O.2       1    UNL1    -0.2719
      5 O5          7.8680    3.5880    9.7460 O.2       1    UNL1    -0.2445
      6 N6          5.9590   -4.7450    5.7490 N.am      1    UNL1    -0.3048
      7 N7          3.0770    4.8180   13.8450 N.pl3     1    UNL1    -0.2464
      8 N8          3.4860    7.1430   13.3580 N.pl3     1    UNL1    -0.2915
      9 N9          2.0090    6.5490   14.9930 N.pl3     1    UNL1    -0.2915
     10 C10         6.3220   -1.6770   10.5620 C.ar      1    UNL1    -0.0365
     11 C11         6.3800   -3.0740   11.1230 C.3       1    UNL1     0.0701
     12 C12         7.2180   -1.2880    9.5660 C.ar      1    UNL1    -0.0546
     13 C13         5.3740   -0.7720   11.0390 C.ar      1    UNL1    -0.0546
     14 C14         6.2170    0.9100    9.5230 C.ar      1    UNL1     0.1320
     15 C15         7.1660    0.0050    9.0470 C.ar      1    UNL1    -0.0189
     16 C16         5.3220    0.5210   10.5190 C.ar      1    UNL1    -0.0189
     17 C17         7.1480   -4.0320   10.2430 C.2       1    UNL1     0.3119
     18 C18         7.0800   -4.1180    7.8790 C.3       1    UNL1     0.1682
     19 C19         5.7760    3.5840   10.8900 C.ar      1    UNL1     0.0596
     20 C20         6.0660   -3.8260    6.7930 C.2       1    UNL1     0.2528
     21 C21         6.7330    3.1460    9.8420 C.2       1    UNL1     0.3444
     22 C22         4.4030    3.5150   10.6530 C.ar      1    UNL1    -0.0445
     23 C23         6.2500    4.0640   12.1110 C.ar      1    UNL1    -0.0445
     24 C24         3.9780    4.4060   12.8580 C.ar      1    UNL1     0.0999
     25 C25         3.5040    3.9260   11.6370 C.ar      1    UNL1    -0.0224
     26 C26         5.3510    4.4750   13.0950 C.ar      1    UNL1    -0.0224
     27 C27         6.7500   -5.9650    5.6100 C.3       1    UNL1     0.0029
     28 C28         5.0030   -4.5020    4.6760 C.3       1    UNL1     0.0029
     29 C29         2.8870    6.1020   14.0340 C.cat     1    UNL1     0.3458
     30 H1          2.5920    4.1550   14.3880 H         1    UNL1     0.2647
     31 H2          2.9910    7.6240   12.6560 H         1    UNL1     0.2546
     32 H3          4.4090    7.4060   13.5770 H         1    UNL1     0.2546
     33 H4          2.1910    7.3890   15.4730 H         1    UNL1     0.2546
     34 H5          1.2000    6.0290   15.2010 H         1    UNL1     0.2546
     35 H6          5.3800   -3.4390   11.2320 H         1    UNL1     0.0426
     36 H7          6.8910   -3.0220   12.0620 H         1    UNL1     0.0426
     37 H8          7.9200   -1.9580    9.2140 H         1    UNL1     0.0622
     38 H9          4.7110   -1.0590   11.7760 H         1    UNL1     0.0622
     39 H10         7.8290    0.2920    8.3100 H         1    UNL1     0.0654
     40 H11         4.6200    1.1910   10.8720 H         1    UNL1     0.0654
     41 H12         7.6220   -5.0060    7.6300 H         1    UNL1     0.0796
     42 H13         7.7580   -3.2950    7.9620 H         1    UNL1     0.0796
     43 H14         4.0530    3.1600    9.7490 H         1    UNL1     0.0627
     44 H15         7.2660    4.1150   12.2860 H         1    UNL1     0.0627
     45 H16         2.4890    3.8750   11.4620 H         1    UNL1     0.0652
     46 H17         5.7020    4.8300   13.9980 H         1    UNL1     0.0652
     47 H18         7.4180   -6.0530    6.4420 H         1    UNL1     0.0428
     48 H19         7.3150   -5.9230    4.7020 H         1    UNL1     0.0428
     49 H20         6.0980   -6.8130    5.5860 H         1    UNL1     0.0428
     50 H21         4.4760   -3.5910    4.8670 H         1    UNL1     0.0428
     51 H22         4.3070   -5.3140    4.6280 H         1    UNL1     0.0428
     52 H23         5.5240   -4.4240    3.7440 H         1    UNL1     0.0428
@<TRIPOS>UNITY_ATOM_ATTR
7 1
charge 1
@<TRIPOS>BOND
     1     1    17    1
     2     1    18    1
     3     2    14    1
     4     2    21    1
     5     3    17    2
     6     4    20    2
     7     5    21    2
     8     6    20   am
     9     6    27    1
    10     6    28    1
    11     7    24    1
    12     7    29    2
    13     8    29    1
    14     9    29    1
    15    10    11    1
    16    10    12   ar
    17    10    13   ar
    18    11    17    1
    19    12    15   ar
    20    13    16   ar
    21    14    15   ar
    22    14    16   ar
    23    18    20    1
    24    19    21    1
    25    19    22   ar
    26    19    23   ar
    27    22    25   ar
    28    23    26   ar
    29    24    25   ar
    30    24    26   ar
    31     7    30    1
    32     8    31    1
    33     8    32    1
    34     9    33    1
    35     9    34    1
    36    11    35    1
    37    11    36    1
    38    12    37    1
    39    13    38    1
    40    15    39    1
    41    16    40    1
    42    18    41    1
    43    18    42    1
    44    22    43    1
    45    23    44    1
    46    25    45    1
    47    26    46    1
    48    27    47    1
    49    27    48    1
    50    27    49    1
    51    28    50    1
    52    28    51    1
    53    28    52    1
