#REMARK Cluster   2 of Poses:  4 Score: -7.96 kcal/mol
@<TRIPOS>MOLECULE
2536
 52 53 0 0 0
SMALL
GASTEIGER

@<TRIPOS>ATOM
      1 O1          5.8650    4.4790   13.2390 O.3       1    UNL1    -0.4550
      2 O2          6.6840   -1.5100    9.7800 O.3       1    UNL1    -0.4223
      3 O3          7.9990    4.6170   12.3740 O.2       1    UNL1    -0.2505
      4 O4          3.2030    3.5820   14.5120 O.2       1    UNL1    -0.2719
      5 O5          4.4280   -1.7120    9.2300 O.2       1    UNL1    -0.2445
      6 N6          3.3100    5.9010   14.5700 N.am      1    UNL1    -0.3048
      7 N7          7.1990   -6.3770    5.7910 N.pl3     1    UNL1    -0.2464
      8 N8          5.1350   -6.2900    4.5480 N.pl3     1    UNL1    -0.2915
      9 N9          6.7360   -7.8290    4.0210 N.pl3     1    UNL1    -0.2915
     10 C10         6.2760    2.5310   10.6350 C.ar      1    UNL1    -0.0365
     11 C11         6.1280    3.9980   10.9460 C.3       1    UNL1     0.0701
     12 C12         5.6790    1.5790   11.4610 C.ar      1    UNL1    -0.0546
     13 C13         7.0110    2.1240    9.5210 C.ar      1    UNL1    -0.0546
     14 C14         6.5500   -0.1850   10.0600 C.ar      1    UNL1     0.1320
     15 C15         5.8150    0.2210   11.1740 C.ar      1    UNL1    -0.0189
     16 C16         7.1480    0.7660    9.2340 C.ar      1    UNL1    -0.0189
     17 C17         6.8030    4.3970   12.2370 C.2       1    UNL1     0.3119
     18 C18         4.5200    4.6020   12.8270 C.3       1    UNL1     0.1682
     19 C19         6.0110   -3.1980    8.2460 C.ar      1    UNL1     0.0596
     20 C20         3.6170    4.6460   14.0420 C.2       1    UNL1     0.2528
     21 C21         5.5900   -2.0710    9.1170 C.2       1    UNL1     0.3444
     22 C22         6.2230   -4.4630    8.7960 C.ar      1    UNL1    -0.0445
     23 C23         6.1950   -2.9920    6.8790 C.ar      1    UNL1    -0.0445
     24 C24         6.8020   -5.3150    6.6110 C.ar      1    UNL1     0.0999
     25 C25         6.6180   -5.5210    7.9780 C.ar      1    UNL1    -0.0224
     26 C26         6.5910   -4.0510    6.0610 C.ar      1    UNL1    -0.0224
     27 C27         3.7930    7.1790   14.0520 C.3       1    UNL1     0.0029
     28 C28         2.4520    5.9930   15.7440 C.3       1    UNL1     0.0029
     29 C29         6.3840   -6.7880    4.8490 C.cat     1    UNL1     0.3458
     30 H1          8.0750   -6.8080    5.9190 H         1    UNL1     0.2647
     31 H2          5.0450   -5.5270    3.9320 H         1    UNL1     0.2546
     32 H3          4.3330   -6.6970    4.9490 H         1    UNL1     0.2546
     33 H4          7.2510   -8.5880    4.3770 H         1    UNL1     0.2546
     34 H5          6.4720   -7.8140    3.0730 H         1    UNL1     0.2546
     35 H6          5.0860    4.2270   11.0200 H         1    UNL1     0.0426
     36 H7          6.6010    4.5420   10.1550 H         1    UNL1     0.0426
     37 H8          5.1350    1.8800   12.2850 H         1    UNL1     0.0622
     38 H9          7.4530    2.8280    8.9090 H         1    UNL1     0.0622
     39 H10         5.3730   -0.4830   11.7850 H         1    UNL1     0.0654
     40 H11         7.6910    0.4650    8.4100 H         1    UNL1     0.0654
     41 H12         4.2570    3.7630   12.2180 H         1    UNL1     0.0796
     42 H13         4.4030    5.5050   12.2650 H         1    UNL1     0.0796
     43 H14         6.0870   -4.6150    9.8070 H         1    UNL1     0.0627
     44 H15         6.0380   -2.0570    6.4720 H         1    UNL1     0.0627
     45 H16         6.7750   -6.4570    8.3850 H         1    UNL1     0.0652
     46 H17         6.7270   -3.8980    5.0500 H         1    UNL1     0.0652
     47 H18         4.4110    7.0060   13.1960 H         1    UNL1     0.0428
     48 H19         4.3630    7.6780   14.8080 H         1    UNL1     0.0428
     49 H20         2.9590    7.7880   13.7730 H         1    UNL1     0.0428
     50 H21         2.1520    5.0110   16.0460 H         1    UNL1     0.0428
     51 H22         1.5850    6.5740   15.5080 H         1    UNL1     0.0428
     52 H23         2.9880    6.4630   16.5420 H         1    UNL1     0.0428
@<TRIPOS>UNITY_ATOM_ATTR
7 1
charge 1
@<TRIPOS>BOND
     1     1    17    1
     2     1    18    1
     3     2    14    1
     4     2    21    1
     5     3    17    2
     6     4    20    2
     7     5    21    2
     8     6    20   am
     9     6    27    1
    10     6    28    1
    11     7    24    1
    12     7    29    2
    13     8    29    1
    14     9    29    1
    15    10    11    1
    16    10    12   ar
    17    10    13   ar
    18    11    17    1
    19    12    15   ar
    20    13    16   ar
    21    14    15   ar
    22    14    16   ar
    23    18    20    1
    24    19    21    1
    25    19    22   ar
    26    19    23   ar
    27    22    25   ar
    28    23    26   ar
    29    24    25   ar
    30    24    26   ar
    31     7    30    1
    32     8    31    1
    33     8    32    1
    34     9    33    1
    35     9    34    1
    36    11    35    1
    37    11    36    1
    38    12    37    1
    39    13    38    1
    40    15    39    1
    41    16    40    1
    42    18    41    1
    43    18    42    1
    44    22    43    1
    45    23    44    1
    46    25    45    1
    47    26    46    1
    48    27    47    1
    49    27    48    1
    50    27    49    1
    51    28    50    1
    52    28    51    1
    53    28    52    1
