#REMARK Cluster  11 of Poses:  1 Score: -8.14 kcal/mol
@<TRIPOS>MOLECULE
*****
 65 68 0 0 0
SMALL
GASTEIGER

@<TRIPOS>ATOM
      1 C1         10.2790  -11.3490   12.2800 C.ar      1    UNL1    -0.0449
      2 C2          9.0280  -10.8690   11.8770 C.ar      1    UNL1    -0.0334
      3 C3          8.8830   -9.4930   11.6260 C.ar      1    UNL1     0.0895
      4 C4          9.9720   -8.6470   11.8120 C.ar      1    UNL1     0.0673
      5 C5         11.2250   -9.0860   12.2340 C.ar      1    UNL1    -0.0215
      6 C6         11.3470  -10.4640   12.4470 C.ar      1    UNL1     0.0629
      7 C7         12.6670  -10.9960   12.8410 C.2       1    UNL1     0.2662
      8 N8         12.7850  -11.6320   13.9680 N.2       1    UNL1    -0.2884
      9 N9         13.7170  -10.7810   11.9690 N.pl3     1    UNL1    -0.2497
     10 N10         9.5000   -7.4040   11.4850 N.ar      1    UNL1    -0.3378
     11 C11         8.1860   -7.5310   11.1050 C.ar      1    UNL1     0.1428
     12 N12         7.7870   -8.7860   11.1930 N.ar      1    UNL1    -0.2276
     13 C13         7.3770   -6.3970   10.6910 C.ar      1    UNL1     0.0595
     14 C14         6.7480   -5.6250   11.6720 C.ar      1    UNL1    -0.0439
     15 C15         5.9530   -4.5320   11.3160 C.ar      1    UNL1    -0.0372
     16 C16         5.7540   -4.2490    9.9550 C.ar      1    UNL1    -0.0467
     17 C17         6.3880   -4.9930    8.9380 C.ar      1    UNL1     0.0281
     18 C18         7.2130   -6.0590    9.3390 C.ar      1    UNL1     0.1353
     19 O19         7.8750   -6.7980    8.3920 O.3       1    UNL1    -0.5054
     20 C20         6.2140   -4.5950    7.5230 C.ar      1    UNL1     0.0289
     21 C21         6.0880   -5.5890    6.5360 C.ar      1    UNL1    -0.0240
     22 C22         5.9720   -5.2540    5.1810 C.ar      1    UNL1     0.1058
     23 C23         5.9220   -3.9260    4.7750 C.ar      1    UNL1    -0.0319
     24 C24         6.0250   -2.9240    5.7380 C.ar      1    UNL1    -0.0177
     25 C25         6.1910   -3.2590    7.0870 C.ar      1    UNL1     0.1248
     26 O26         6.3010   -2.2280    7.9810 O.3       1    UNL1    -0.5062
     27 S27         5.9370   -6.5920    4.0300 S.O2      1    UNL1     0.0560
     28 O28         6.4170   -7.7560    4.7500 O.2       1    UNL1    -0.1533
     29 O29         4.6200   -6.5700    3.4240 O.2       1    UNL1    -0.1533
     30 N30         7.0960   -6.1720    2.8500 N.3       1    UNL1    -0.2035
     31 C31         5.3320   -3.6670   12.3830 C.3       1    UNL1     0.0491
     32 C32         3.9480   -4.1290   12.8060 C.2       1    UNL1     0.2178
     33 O33         3.2300   -3.5310   13.6030 O.2       1    UNL1    -0.2754
     34 N34         3.5810   -5.2980   12.1630 N.am      1    UNL1    -0.3067
     35 C35         3.5920   -6.5890   12.8390 C.3       1    UNL1     0.0676
     36 C36         2.3570   -6.8010   13.7240 C.3       1    UNL1     0.0105
     37 C37         2.6890   -6.9040   15.1960 C.2       1    UNL1     0.0439
     38 O38         3.1340   -7.8880   15.7670 O.co2     1    UNL1    -0.5497
     39 O39         2.3400   -5.7580   15.8370 O.co2     1    UNL1    -0.5497
     40 C40         3.6580   -7.6300   11.7380 C.2       1    UNL1     0.0623
     41 O41         3.6960   -8.8370   11.9420 O.co2     1    UNL1    -0.5479
     42 O42         3.6330   -7.0880   10.4930 O.co2     1    UNL1    -0.5479
     43 H1         10.4130  -12.3570   12.4550 H         1    UNL1     0.0627
     44 H2          8.2280  -11.5120   11.7670 H         1    UNL1     0.0640
     45 H3         12.0140   -8.4360   12.3790 H         1    UNL1     0.0647
     46 H4         12.0000  -11.7540   14.5490 H         1    UNL1     0.3009
     47 H5         13.6600  -11.9910   14.2400 H         1    UNL1     0.3009
     48 H6         13.5970  -10.1870   11.1920 H         1    UNL1     0.2883
     49 H7         14.5830  -11.2210   12.1230 H         1    UNL1     0.2883
     50 H8         10.0130   -6.5640   11.5170 H         1    UNL1     0.1674
     51 H9          6.8730   -5.8640   12.6690 H         1    UNL1     0.0629
     52 H10         5.1240   -3.4750    9.6910 H         1    UNL1     0.0628
     53 H11         7.5410   -7.6340    8.1320 H         1    UNL1     0.2922
     54 H12         6.0810   -6.5830    6.8150 H         1    UNL1     0.0644
     55 H13         5.8110   -3.6860    3.7770 H         1    UNL1     0.0638
     56 H14         5.9790   -1.9320    5.4560 H         1    UNL1     0.0655
     57 H15         5.6740   -1.5310    7.9720 H         1    UNL1     0.2922
     58 H16         6.6700   -6.2170    1.9240 H         1    UNL1     0.1442
     59 H17         7.8800   -6.8230    2.8970 H         1    UNL1     0.1442
     60 H18         5.2560   -2.6680   12.0080 H         1    UNL1     0.0407
     61 H19         5.9620   -3.7290   13.2460 H         1    UNL1     0.0407
     62 H20         3.3040   -5.2560   11.2190 H         1    UNL1     0.1493
     63 H21         4.4280   -6.6550   13.5040 H         1    UNL1     0.0564
     64 H22         1.8730   -7.7060   13.4210 H         1    UNL1     0.0346
     65 H23         1.7270   -5.9460   13.6000 H         1    UNL1     0.0346
@<TRIPOS>UNITY_ATOM_ATTR
8 1
charge 1
39 1
charge -1
42 1
charge -1
@<TRIPOS>BOND
     1     1     2   ar
     2     1     6   ar
     3     2     3   ar
     4     3     4   ar
     5     3    12   ar
     6     4     5   ar
     7     4    10   ar
     8     5     6   ar
     9     6     7    1
    10     7     8    2
    11     7     9    1
    12    10    11   ar
    13    11    12   ar
    14    11    13    1
    15    13    14   ar
    16    13    18   ar
    17    14    15   ar
    18    15    16   ar
    19    15    31    1
    20    16    17   ar
    21    17    18   ar
    22    17    20    1
    23    18    19    1
    24    20    21   ar
    25    20    25   ar
    26    21    22   ar
    27    22    23   ar
    28    22    27    1
    29    23    24   ar
    30    24    25   ar
    31    25    26    1
    32    27    28    2
    33    27    29    2
    34    27    30    1
    35    31    32    1
    36    32    33    2
    37    32    34   am
    38    34    35    1
    39    35    36    1
    40    35    40    1
    41    36    37    1
    42    37    38   ar
    43    37    39   ar
    44    40    41   ar
    45    40    42   ar
    46     1    43    1
    47     2    44    1
    48     5    45    1
    49     8    46    1
    50     8    47    1
    51     9    48    1
    52     9    49    1
    53    10    50    1
    54    14    51    1
    55    16    52    1
    56    19    53    1
    57    21    54    1
    58    23    55    1
    59    24    56    1
    60    26    57    1
    61    30    58    1
    62    30    59    1
    63    31    60    1
    64    31    61    1
    65    34    62    1
    66    35    63    1
    67    36    64    1
    68    36    65    1
