#REMARK Cluster   4 of Poses:  2 Score: -7.63 kcal/mol
@<TRIPOS>MOLECULE
64949
 45 46 0 0 0
SMALL
GASTEIGER

@<TRIPOS>ATOM
      1 O1          6.8660   -2.4070    8.0650 O.3       1    UNL1    -0.4918
      2 O2          6.0340    0.6220   11.6930 O.3       1    UNL1    -0.4918
      3 N3          3.9710   -5.7200    3.3610 N.pl3     1    UNL1    -0.2497
      4 N4          4.1480    6.6720   12.8470 N.pl3     1    UNL1    -0.2497
      5 N5          6.1700   -6.5030    3.2400 N.2       1    UNL1    -0.2884
      6 N6          2.5540    5.4230   14.0130 N.2       1    UNL1    -0.2884
      7 C7          6.4540   -0.9490    9.9170 C.3       1    UNL1     0.0157
      8 C8          5.8290   -1.8130    8.8340 C.3       1    UNL1     0.0927
      9 C9          5.4220   -0.0810   10.6200 C.3       1    UNL1     0.0927
     10 C10         6.4800   -3.2140    7.0260 C.ar      1    UNL1     0.1205
     11 C11         5.4470    1.8010   12.0740 C.ar      1    UNL1     0.1205
     12 C12         6.8240   -4.5610    7.0390 C.ar      1    UNL1    -0.0191
     13 C13         5.4930    2.8980   11.2220 C.ar      1    UNL1    -0.0191
     14 C14         5.7500   -2.6780    5.9720 C.ar      1    UNL1    -0.0191
     15 C15         4.8100    1.8860   13.3070 C.ar      1    UNL1    -0.0191
     16 C16         5.6970   -4.8530    4.9220 C.ar      1    UNL1     0.0610
     17 C17         4.2550    4.1910   12.8440 C.ar      1    UNL1     0.0610
     18 C18         6.4310   -5.3830    5.9830 C.ar      1    UNL1    -0.0436
     19 C19         4.8960    4.0980   11.6090 C.ar      1    UNL1    -0.0436
     20 C20         5.3570   -3.5000    4.9160 C.ar      1    UNL1    -0.0436
     21 C21         4.2120    3.0850   13.6930 C.ar      1    UNL1    -0.0436
     22 C22         5.2870   -5.7100    3.8210 C.2       1    UNL1     0.2662
     23 C23         3.6310    5.4410   13.2480 C.2       1    UNL1     0.2662
     24 H1          3.7130   -5.1560    2.5970 H         1    UNL1     0.2883
     25 H2          3.3000   -6.2910    3.8000 H         1    UNL1     0.2883
     26 H3          3.5910    7.2940   12.3250 H         1    UNL1     0.2883
     27 H4          5.0710    6.9200   13.0860 H         1    UNL1     0.2883
     28 H5          5.8940   -7.0840    2.4940 H         1    UNL1     0.3009
     29 H6          7.1030   -6.5130    3.5520 H         1    UNL1     0.3009
     30 H7          2.1300    6.2680   14.2870 H         1    UNL1     0.3009
     31 H8          2.1750    4.5640   14.3080 H         1    UNL1     0.3009
     32 H9          7.1920   -0.3140    9.4700 H         1    UNL1     0.0331
     33 H10         6.8920   -1.5980   10.6460 H         1    UNL1     0.0331
     34 H11         5.2330   -2.5780    9.2850 H         1    UNL1     0.0697
     35 H12         5.2080   -1.2110    8.2030 H         1    UNL1     0.0697
     36 H13         5.0130    0.6200    9.9230 H         1    UNL1     0.0697
     37 H14         4.6420   -0.7040   11.0050 H         1    UNL1     0.0697
     38 H15         7.3660   -4.9510    7.8250 H         1    UNL1     0.0654
     39 H16         5.9680    2.8260   10.3090 H         1    UNL1     0.0654
     40 H17         5.4990   -1.6770    5.9710 H         1    UNL1     0.0654
     41 H18         4.7810    1.0660   13.9330 H         1    UNL1     0.0654
     42 H19         6.6830   -6.3840    5.9870 H         1    UNL1     0.0627
     43 H20         4.9270    4.9160   10.9810 H         1    UNL1     0.0627
     44 H21         4.8140   -3.1080    4.1310 H         1    UNL1     0.0627
     45 H22         3.7380    3.1540   14.6080 H         1    UNL1     0.0627
@<TRIPOS>UNITY_ATOM_ATTR
5 1
charge 1
6 1
charge 1
@<TRIPOS>BOND
     1     1     8    1
     2     1    10    1
     3     2     9    1
     4     2    11    1
     5     3    22    1
     6     4    23    1
     7     5    22    2
     8     6    23    2
     9     7     8    1
    10     7     9    1
    11    10    12   ar
    12    10    14   ar
    13    11    13   ar
    14    11    15   ar
    15    12    18   ar
    16    13    19   ar
    17    14    20   ar
    18    15    21   ar
    19    16    18   ar
    20    16    20   ar
    21    16    22    1
    22    17    19   ar
    23    17    21   ar
    24    17    23    1
    25     3    24    1
    26     3    25    1
    27     4    26    1
    28     4    27    1
    29     5    28    1
    30     5    29    1
    31     6    30    1
    32     6    31    1
    33     7    32    1
    34     7    33    1
    35     8    34    1
    36     8    35    1
    37     9    36    1
    38     9    37    1
    39    12    38    1
    40    13    39    1
    41    14    40    1
    42    15    41    1
    43    18    42    1
    44    19    43    1
    45    20    44    1
    46    21    45    1
