#REMARK Cluster  11 of Poses:  1 Score: -6.92 kcal/mol
@<TRIPOS>MOLECULE
2536
 52 53 0 0 0
SMALL
GASTEIGER

@<TRIPOS>ATOM
      1 O1          3.9640   -7.2860   13.3590 O.3       1    UNL1    -0.4550
      2 O2          5.0070   -2.0330    9.5000 O.3       1    UNL1    -0.4223
      3 O3          2.2190   -6.2320   14.4380 O.2       1    UNL1    -0.2505
      4 O4          4.4780   -9.7020   11.7670 O.2       1    UNL1    -0.2719
      5 O5          7.1840   -1.2820    9.1400 O.2       1    UNL1    -0.2445
      6 N6          2.1690   -9.7850   12.0000 N.am      1    UNL1    -0.3048
      7 N7          6.8460   -6.5830    5.5290 N.pl3     1    UNL1    -0.2464
      8 N8          5.0260   -5.8450    4.1310 N.pl3     1    UNL1    -0.2915
      9 N9          6.1390   -7.7780    3.6510 N.pl3     1    UNL1    -0.2915
     10 C10         4.5400   -4.2970   12.9470 C.ar      1    UNL1    -0.0365
     11 C11         4.3700   -5.1200   14.1980 C.3       1    UNL1     0.0701
     12 C12         3.4240   -3.7420   12.3210 C.ar      1    UNL1    -0.0546
     13 C13         5.8130   -4.0920   12.4140 C.ar      1    UNL1    -0.0546
     14 C14         4.8530   -2.7750   10.6300 C.ar      1    UNL1     0.1320
     15 C15         3.5810   -2.9810   11.1630 C.ar      1    UNL1    -0.0189
     16 C16         5.9690   -3.3310   11.2560 C.ar      1    UNL1    -0.0189
     17 C17         3.3740   -6.2430   14.0350 C.2       1    UNL1     0.3119
     18 C18         3.3940   -7.6240   12.1130 C.3       1    UNL1     0.1682
     19 C19         6.4330   -3.2650    8.0510 C.ar      1    UNL1     0.0596
     20 C20         3.3990   -9.1280   11.9420 C.2       1    UNL1     0.2528
     21 C21         6.2870   -2.0890    8.9450 C.2       1    UNL1     0.3444
     22 C22         5.7040   -3.3340    6.8640 C.ar      1    UNL1    -0.0445
     23 C23         7.3000   -4.3020    8.3980 C.ar      1    UNL1    -0.0445
     24 C24         6.7080   -5.4760    6.3710 C.ar      1    UNL1     0.0999
     25 C25         5.8420   -4.4390    6.0240 C.ar      1    UNL1    -0.0224
     26 C26         7.4370   -5.4070    7.5580 C.ar      1    UNL1    -0.0224
     27 C27         0.8750   -9.1440   12.2190 C.3       1    UNL1     0.0029
     28 C28         2.1240  -11.2350   11.8490 C.3       1    UNL1     0.0029
     29 C29         6.0370   -6.7040    4.5030 C.cat     1    UNL1     0.3458
     30 H1          7.5380   -7.2610    5.7030 H         1    UNL1     0.2647
     31 H2          5.2250   -5.0690    3.5590 H         1    UNL1     0.2546
     32 H3          4.1050   -6.0070    4.4370 H         1    UNL1     0.2546
     33 H4          5.4810   -7.8980    2.9280 H         1    UNL1     0.2546
     34 H5          6.8700   -8.4280    3.7620 H         1    UNL1     0.2546
     35 H6          4.0330   -4.4780   14.9850 H         1    UNL1     0.0426
     36 H7          5.3180   -5.5620   14.4220 H         1    UNL1     0.0426
     37 H8          2.4820   -3.8930   12.7160 H         1    UNL1     0.0622
     38 H9          6.6380   -4.5040   12.8770 H         1    UNL1     0.0622
     39 H10         2.7550   -2.5690   10.7000 H         1    UNL1     0.0654
     40 H11         6.9110   -3.1800   10.8620 H         1    UNL1     0.0654
     41 H12         3.9650   -7.1750   11.3270 H         1    UNL1     0.0796
     42 H13         2.3870   -7.2650   12.0740 H         1    UNL1     0.0796
     43 H14         5.0630   -2.5670    6.6070 H         1    UNL1     0.0627
     44 H15         7.8390   -4.2510    9.2760 H         1    UNL1     0.0627
     45 H16         5.3020   -4.4900    5.1460 H         1    UNL1     0.0652
     46 H17         8.0780   -6.1740    7.8150 H         1    UNL1     0.0652
     47 H18         1.0130   -8.0870   12.3160 H         1    UNL1     0.0428
     48 H19         0.4330   -9.5300   13.1130 H         1    UNL1     0.0428
     49 H20         0.2320   -9.3440   11.3870 H         1    UNL1     0.0428
     50 H21         3.1140  -11.6080   11.6940 H         1    UNL1     0.0428
     51 H22         1.5120  -11.4870   11.0090 H         1    UNL1     0.0428
     52 H23         1.7120  -11.6720   12.7340 H         1    UNL1     0.0428
@<TRIPOS>UNITY_ATOM_ATTR
7 1
charge 1
@<TRIPOS>BOND
     1     1    17    1
     2     1    18    1
     3     2    14    1
     4     2    21    1
     5     3    17    2
     6     4    20    2
     7     5    21    2
     8     6    20   am
     9     6    27    1
    10     6    28    1
    11     7    24    1
    12     7    29    2
    13     8    29    1
    14     9    29    1
    15    10    11    1
    16    10    12   ar
    17    10    13   ar
    18    11    17    1
    19    12    15   ar
    20    13    16   ar
    21    14    15   ar
    22    14    16   ar
    23    18    20    1
    24    19    21    1
    25    19    22   ar
    26    19    23   ar
    27    22    25   ar
    28    23    26   ar
    29    24    25   ar
    30    24    26   ar
    31     7    30    1
    32     8    31    1
    33     8    32    1
    34     9    33    1
    35     9    34    1
    36    11    35    1
    37    11    36    1
    38    12    37    1
    39    13    38    1
    40    15    39    1
    41    16    40    1
    42    18    41    1
    43    18    42    1
    44    22    43    1
    45    23    44    1
    46    25    45    1
    47    26    46    1
    48    27    47    1
    49    27    48    1
    50    27    49    1
    51    28    50    1
    52    28    51    1
    53    28    52    1
