#REMARK Cluster   2 of Poses:  2 Score: -9.33 kcal/mol
@<TRIPOS>MOLECULE
*****
 65 68 0 0 0
SMALL
GASTEIGER

@<TRIPOS>ATOM
      1 C1          6.4430    3.5950   10.2610 C.ar      1    UNL1    -0.0449
      2 C2          5.5950    2.4900   10.1320 C.ar      1    UNL1    -0.0334
      3 C3          6.1630    1.2350    9.8540 C.ar      1    UNL1     0.0895
      4 C4          7.5400    1.1300    9.6850 C.ar      1    UNL1     0.0673
      5 C5          8.4120    2.2120    9.7830 C.ar      1    UNL1    -0.0215
      6 C6          7.8220    3.4440   10.0910 C.ar      1    UNL1     0.0629
      7 C7          8.7010    4.6170   10.2630 C.2       1    UNL1     0.2662
      8 N8          9.2280    5.1760    9.2160 N.2       1    UNL1    -0.2884
      9 N9          8.9140    5.0570   11.5560 N.pl3     1    UNL1    -0.2497
     10 N10         7.7550   -0.1990    9.4330 N.ar      1    UNL1    -0.3378
     11 C11         6.5420   -0.8440    9.4730 C.ar      1    UNL1     0.1428
     12 N12         5.5620    0.0060    9.7150 N.ar      1    UNL1    -0.2276
     13 C13         6.4080   -2.2730    9.2480 C.ar      1    UNL1     0.0595
     14 C14         6.3670   -3.1280   10.3530 C.ar      1    UNL1    -0.0439
     15 C15         6.2490   -4.5100   10.1790 C.ar      1    UNL1    -0.0372
     16 C16         6.2220   -5.0330    8.8770 C.ar      1    UNL1    -0.0467
     17 C17         6.2400   -4.2000    7.7380 C.ar      1    UNL1     0.0281
     18 C18         6.3170   -2.8130    7.9560 C.ar      1    UNL1     0.1353
     19 O19         6.3100   -1.9560    6.8850 O.3       1    UNL1    -0.5054
     20 C20         6.1180   -4.8000    6.3910 C.ar      1    UNL1     0.0289
     21 C21         5.1100   -4.3450    5.5210 C.ar      1    UNL1    -0.0240
     22 C22         4.9300   -4.9210    4.2570 C.ar      1    UNL1     0.1058
     23 C23         5.7770   -5.9240    3.8010 C.ar      1    UNL1    -0.0319
     24 C24         6.7950   -6.3760    4.6380 C.ar      1    UNL1    -0.0177
     25 C25         6.9440   -5.8340    5.9200 C.ar      1    UNL1     0.1248
     26 O26         7.9540   -6.3330    6.6990 O.3       1    UNL1    -0.5062
     27 S27         3.5610   -4.3420    3.3060 S.O2      1    UNL1     0.0560
     28 O28         2.4040   -4.4140    4.1790 O.2       1    UNL1    -0.1533
     29 O29         3.9810   -3.0890    2.7120 O.2       1    UNL1    -0.1533
     30 N30         3.3760   -5.5050    2.0700 N.3       1    UNL1    -0.2035
     31 C31         6.1410   -5.4180   11.3780 C.3       1    UNL1     0.0491
     32 C32         4.7700   -6.0530   11.5350 C.2       1    UNL1     0.2178
     33 O33         3.7710   -5.4600   11.9300 O.2       1    UNL1    -0.2754
     34 N34         4.7770   -7.3830   11.1520 N.am      1    UNL1    -0.3067
     35 C35         4.7580   -8.4680   12.1240 C.3       1    UNL1     0.0676
     36 C36         3.6230   -9.4690   11.8690 C.3       1    UNL1     0.0105
     37 C37         2.2810   -8.9910   12.3750 C.2       1    UNL1     0.0439
     38 O38         2.0550   -7.9210   12.9190 O.co2     1    UNL1    -0.5497
     39 O39         1.3460   -9.9650   12.2170 O.co2     1    UNL1    -0.5497
     40 C40         6.1120   -9.1420   12.0180 C.2       1    UNL1     0.0623
     41 O41         6.8830   -8.9810   11.0800 O.co2     1    UNL1    -0.5479
     42 O42         6.4040   -9.9190   13.0930 O.co2     1    UNL1    -0.5479
     43 H1          6.0500    4.5240   10.4820 H         1    UNL1     0.0627
     44 H2          4.5740    2.5940   10.2400 H         1    UNL1     0.0640
     45 H3          9.4290    2.1120    9.6380 H         1    UNL1     0.0647
     46 H4          9.0390    4.8170    8.3190 H         1    UNL1     0.3009
     47 H5          9.8160    5.9590    9.3200 H         1    UNL1     0.3009
     48 H6          9.5830    4.6110   12.1240 H         1    UNL1     0.2883
     49 H7          8.3960    5.8160   11.9090 H         1    UNL1     0.2883
     50 H8          8.6270   -0.6190    9.2540 H         1    UNL1     0.1674
     51 H9          6.4240   -2.7350   11.3060 H         1    UNL1     0.0629
     52 H10         6.1880   -6.0560    8.7480 H         1    UNL1     0.0628
     53 H11         5.5790   -1.3880    6.7440 H         1    UNL1     0.2922
     54 H12         4.4930   -3.5740    5.8190 H         1    UNL1     0.0644
     55 H13         5.6550   -6.3260    2.8580 H         1    UNL1     0.0638
     56 H14         7.4410   -7.1130    4.3120 H         1    UNL1     0.0655
     57 H15         8.5920   -6.9090    6.3270 H         1    UNL1     0.2922
     58 H16         4.0020   -6.2900    2.2450 H         1    UNL1     0.1442
     59 H17         3.6030   -5.0830    1.1700 H         1    UNL1     0.1442
     60 H18         6.3520   -4.8450   12.2570 H         1    UNL1     0.0407
     61 H19         6.8430   -6.2130   11.2350 H         1    UNL1     0.0407
     62 H20         4.7950   -7.6030   10.1920 H         1    UNL1     0.1493
     63 H21         4.5770   -8.0850   13.1070 H         1    UNL1     0.0564
     64 H22         3.8640  -10.3880   12.3610 H         1    UNL1     0.0346
     65 H23         3.5390   -9.5900   10.8090 H         1    UNL1     0.0346
@<TRIPOS>UNITY_ATOM_ATTR
8 1
charge 1
39 1
charge -1
42 1
charge -1
@<TRIPOS>BOND
     1     1     2   ar
     2     1     6   ar
     3     2     3   ar
     4     3     4   ar
     5     3    12   ar
     6     4     5   ar
     7     4    10   ar
     8     5     6   ar
     9     6     7    1
    10     7     8    2
    11     7     9    1
    12    10    11   ar
    13    11    12   ar
    14    11    13    1
    15    13    14   ar
    16    13    18   ar
    17    14    15   ar
    18    15    16   ar
    19    15    31    1
    20    16    17   ar
    21    17    18   ar
    22    17    20    1
    23    18    19    1
    24    20    21   ar
    25    20    25   ar
    26    21    22   ar
    27    22    23   ar
    28    22    27    1
    29    23    24   ar
    30    24    25   ar
    31    25    26    1
    32    27    28    2
    33    27    29    2
    34    27    30    1
    35    31    32    1
    36    32    33    2
    37    32    34   am
    38    34    35    1
    39    35    36    1
    40    35    40    1
    41    36    37    1
    42    37    38   ar
    43    37    39   ar
    44    40    41   ar
    45    40    42   ar
    46     1    43    1
    47     2    44    1
    48     5    45    1
    49     8    46    1
    50     8    47    1
    51     9    48    1
    52     9    49    1
    53    10    50    1
    54    14    51    1
    55    16    52    1
    56    19    53    1
    57    21    54    1
    58    23    55    1
    59    24    56    1
    60    26    57    1
    61    30    58    1
    62    30    59    1
    63    31    60    1
    64    31    61    1
    65    34    62    1
    66    35    63    1
    67    36    64    1
    68    36    65    1
