#REMARK Cluster  13 of Poses:  1 Score: -6.14 kcal/mol
@<TRIPOS>MOLECULE
2536
 52 53 0 0 0
SMALL
GASTEIGER

@<TRIPOS>ATOM
      1 O1         11.9590   -8.8570   12.5170 O.3       1    UNL1    -0.4550
      2 O2          6.2750   -4.0540   10.6270 O.3       1    UNL1    -0.4223
      3 O3         11.0490   -7.9510   10.6010 O.2       1    UNL1    -0.2505
      4 O4         13.0160  -10.3810   14.4690 O.2       1    UNL1    -0.2719
      5 O5          7.5270   -2.2670    9.8070 O.2       1    UNL1    -0.2445
      6 N6         14.0000  -11.7920   12.9100 N.am      1    UNL1    -0.3048
      7 N7          5.4150   -5.1540    4.4710 N.pl3     1    UNL1    -0.2464
      8 N8          6.7780   -7.1240    4.7360 N.pl3     1    UNL1    -0.2915
      9 N9          5.5970   -6.7880    2.8130 N.pl3     1    UNL1    -0.2915
     10 C10         8.8320   -6.9620   12.1210 C.ar      1    UNL1    -0.0365
     11 C11         9.7600   -8.0180   12.6640 C.3       1    UNL1     0.0701
     12 C12         8.7090   -5.7380   12.7780 C.ar      1    UNL1    -0.0546
     13 C13         8.0960   -7.2090   10.9620 C.ar      1    UNL1    -0.0546
     14 C14         7.1140   -5.0070   11.1170 C.ar      1    UNL1     0.1320
     15 C15         7.8500   -4.7600   12.2760 C.ar      1    UNL1    -0.0189
     16 C16         7.2370   -6.2320   10.4600 C.ar      1    UNL1    -0.0189
     17 C17        10.9650   -8.2520   11.7840 C.2       1    UNL1     0.3119
     18 C18        12.1820  -10.2260   12.2570 C.3       1    UNL1     0.1682
     19 C19         6.4620   -3.7530    8.2760 C.ar      1    UNL1     0.0596
     20 C20        13.1030  -10.8020   13.3120 C.2       1    UNL1     0.2528
     21 C21         6.8330   -3.2560    9.6260 C.2       1    UNL1     0.3444
     22 C22         6.5130   -5.1180    7.9980 C.ar      1    UNL1    -0.0445
     23 C23         6.0630   -2.8530    7.2880 C.ar      1    UNL1    -0.0445
     24 C24         5.7650   -4.6860    5.7420 C.ar      1    UNL1     0.0999
     25 C25         6.1640   -5.5850    6.7300 C.ar      1    UNL1    -0.0224
     26 C26         5.7140   -3.3200    6.0200 C.ar      1    UNL1    -0.0224
     27 C27        14.1220  -12.3260   11.5560 C.3       1    UNL1     0.0029
     28 C28        14.9010  -12.3830   13.8920 C.3       1    UNL1     0.0029
     29 C29         5.9150   -6.2930    4.0550 C.cat     1    UNL1     0.3458
     30 H1          4.8030   -4.6370    3.8980 H         1    UNL1     0.2647
     31 H2          7.2970   -7.8020    4.2470 H         1    UNL1     0.2546
     32 H3          6.8740   -7.0410    5.7130 H         1    UNL1     0.2546
     33 H4          5.3200   -7.7280    2.7140 H         1    UNL1     0.2546
     34 H5          5.6450   -6.2030    2.0220 H         1    UNL1     0.2546
     35 H6          9.2180   -8.9360   12.7510 H         1    UNL1     0.0426
     36 H7         10.1180   -7.6730   13.6110 H         1    UNL1     0.0426
     37 H8          9.2540   -5.5550   13.6350 H         1    UNL1     0.0622
     38 H9          8.1870   -8.1150   10.4760 H         1    UNL1     0.0622
     39 H10         7.7590   -3.8550   12.7620 H         1    UNL1     0.0654
     40 H11         6.6920   -6.4140    9.6030 H         1    UNL1     0.0654
     41 H12        12.6320  -10.3370   11.2920 H         1    UNL1     0.0796
     42 H13        11.2470  -10.7480   12.2790 H         1    UNL1     0.0796
     43 H14         6.8080   -5.7840    8.7290 H         1    UNL1     0.0627
     44 H15         6.0260   -1.8430    7.4940 H         1    UNL1     0.0627
     45 H16         6.2010   -6.5950    6.5240 H         1    UNL1     0.0652
     46 H17         5.4190   -2.6540    5.2890 H         1    UNL1     0.0652
     47 H18        13.4240  -11.8320   10.9130 H         1    UNL1     0.0428
     48 H19        13.9150  -13.3760   11.5670 H         1    UNL1     0.0428
     49 H20        15.1160  -12.1620   11.1960 H         1    UNL1     0.0428
     50 H21        14.7360  -11.9290   14.8460 H         1    UNL1     0.0428
     51 H22        15.9150  -12.2200   13.5900 H         1    UNL1     0.0428
     52 H23        14.7140  -13.4350   13.9610 H         1    UNL1     0.0428
@<TRIPOS>UNITY_ATOM_ATTR
7 1
charge 1
@<TRIPOS>BOND
     1     1    17    1
     2     1    18    1
     3     2    14    1
     4     2    21    1
     5     3    17    2
     6     4    20    2
     7     5    21    2
     8     6    20   am
     9     6    27    1
    10     6    28    1
    11     7    24    1
    12     7    29    2
    13     8    29    1
    14     9    29    1
    15    10    11    1
    16    10    12   ar
    17    10    13   ar
    18    11    17    1
    19    12    15   ar
    20    13    16   ar
    21    14    15   ar
    22    14    16   ar
    23    18    20    1
    24    19    21    1
    25    19    22   ar
    26    19    23   ar
    27    22    25   ar
    28    23    26   ar
    29    24    25   ar
    30    24    26   ar
    31     7    30    1
    32     8    31    1
    33     8    32    1
    34     9    33    1
    35     9    34    1
    36    11    35    1
    37    11    36    1
    38    12    37    1
    39    13    38    1
    40    15    39    1
    41    16    40    1
    42    18    41    1
    43    18    42    1
    44    22    43    1
    45    23    44    1
    46    25    45    1
    47    26    46    1
    48    27    47    1
    49    27    48    1
    50    27    49    1
    51    28    50    1
    52    28    51    1
    53    28    52    1
