#REMARK Cluster  16 of Poses:  1 Score: -7.07 kcal/mol
@<TRIPOS>MOLECULE
*****
 65 68 0 0 0
SMALL
GASTEIGER

@<TRIPOS>ATOM
      1 C1          5.2120    1.8890   15.6740 C.ar      1    UNL1    -0.0449
      2 C2          5.6580    0.5720   15.5160 C.ar      1    UNL1    -0.0334
      3 C3          5.1100   -0.2040   14.4800 C.ar      1    UNL1     0.0895
      4 C4          4.1260    0.3430   13.6640 C.ar      1    UNL1     0.0673
      5 C5          3.6410    1.6420   13.8060 C.ar      1    UNL1    -0.0215
      6 C6          4.2260    2.4000   14.8270 C.ar      1    UNL1     0.0629
      7 C7          3.7940    3.8020   14.9910 C.2       1    UNL1     0.2662
      8 N8          4.6750    4.7520   14.9150 N.2       1    UNL1    -0.2884
      9 N9          2.4480    4.0210   15.2200 N.pl3     1    UNL1    -0.2497
     10 N10         3.8190   -0.6560   12.7780 N.ar      1    UNL1    -0.3378
     11 C11         4.6160   -1.7390   13.0630 C.ar      1    UNL1     0.1428
     12 N12         5.3980   -1.4930   14.0960 N.ar      1    UNL1    -0.2276
     13 C13         4.5490   -2.9800   12.3080 C.ar      1    UNL1     0.0595
     14 C14         3.8150   -4.0470   12.8320 C.ar      1    UNL1    -0.0439
     15 C15         3.7350   -5.2610   12.1430 C.ar      1    UNL1    -0.0372
     16 C16         4.4430   -5.4090   10.9400 C.ar      1    UNL1    -0.0467
     17 C17         5.1770   -4.3480   10.3700 C.ar      1    UNL1     0.0281
     18 C18         5.1990   -3.1300   11.0730 C.ar      1    UNL1     0.1353
     19 O19         5.8750   -2.0570   10.5510 O.3       1    UNL1    -0.5054
     20 C20         5.8290   -4.5320    9.0550 C.ar      1    UNL1     0.0289
     21 C21         5.5390   -3.6380    8.0080 C.ar      1    UNL1    -0.0240
     22 C22         6.0970   -3.8080    6.7350 C.ar      1    UNL1     0.1058
     23 C23         7.0000   -4.8330    6.4810 C.ar      1    UNL1    -0.0319
     24 C24         7.3180   -5.7190    7.5090 C.ar      1    UNL1    -0.0177
     25 C25         6.7220   -5.5790    8.7680 C.ar      1    UNL1     0.1248
     26 O26         7.0650   -6.4900    9.7300 O.3       1    UNL1    -0.5062
     27 S27         5.5660   -2.6900    5.4770 S.O2      1    UNL1     0.0560
     28 O28         6.0930   -3.2070    4.2280 O.2       1    UNL1    -0.1533
     29 O29         4.1420   -2.5030    5.6760 O.2       1    UNL1    -0.1533
     30 N30         6.3700   -1.2280    5.8370 N.3       1    UNL1    -0.2035
     31 C31         2.8880   -6.3850   12.6840 C.3       1    UNL1     0.0491
     32 C32         3.6730   -7.6590   12.9490 C.2       1    UNL1     0.2178
     33 O33         4.8890   -7.7650   12.8220 O.2       1    UNL1    -0.2754
     34 N34         2.8490   -8.6860   13.3770 N.am      1    UNL1    -0.3067
     35 C35         2.4650   -9.7850   12.5010 C.3       1    UNL1     0.0676
     36 C36         3.0100  -11.1380   12.9770 C.3       1    UNL1     0.0105
     37 C37         3.5520  -11.9920   11.8540 C.2       1    UNL1     0.0439
     38 O38         3.3520  -11.8250   10.6600 O.co2     1    UNL1    -0.5497
     39 O39         4.2410  -13.0490   12.3580 O.co2     1    UNL1    -0.5497
     40 C40         0.9480   -9.7870   12.4810 C.2       1    UNL1     0.0623
     41 O41         0.2770   -9.4270   11.5230 O.co2     1    UNL1    -0.5479
     42 O42         0.4040  -10.2670   13.6300 O.co2     1    UNL1    -0.5479
     43 H1          5.6110    2.4830   16.4180 H         1    UNL1     0.0627
     44 H2          6.3740    0.1790   16.1470 H         1    UNL1     0.0640
     45 H3          2.8990    2.0200   13.1980 H         1    UNL1     0.0647
     46 H4          5.6210    4.5340   14.7500 H         1    UNL1     0.3009
     47 H5          4.3980    5.6910   15.0240 H         1    UNL1     0.3009
     48 H6          1.7810    3.7140   14.5650 H         1    UNL1     0.2883
     49 H7          2.1580    4.4850   16.0390 H         1    UNL1     0.2883
     50 H8          3.1460   -0.6070   12.0620 H         1    UNL1     0.1674
     51 H9          3.3280   -3.9390   13.7360 H         1    UNL1     0.0629
     52 H10         4.4270   -6.3220   10.4580 H         1    UNL1     0.0628
     53 H11         5.4680   -1.5180    9.9020 H         1    UNL1     0.2922
     54 H12         4.9030   -2.8440    8.1810 H         1    UNL1     0.0644
     55 H13         7.4270   -4.9370    5.5470 H         1    UNL1     0.0638
     56 H14         7.9950   -6.4800    7.3410 H         1    UNL1     0.0655
     57 H15         6.9870   -7.4080    9.5560 H         1    UNL1     0.2922
     58 H16         6.4250   -0.6540    4.9950 H         1    UNL1     0.1442
     59 H17         7.3120   -1.4310    6.1720 H         1    UNL1     0.1442
     60 H18         2.1190   -6.6030   11.9740 H         1    UNL1     0.0407
     61 H19         2.4930   -6.0580   13.6230 H         1    UNL1     0.0407
     62 H20         2.5130   -8.6740   14.3020 H         1    UNL1     0.1493
     63 H21         2.8780   -9.6460   11.5240 H         1    UNL1     0.0564
     64 H22         2.2190  -11.6720   13.4600 H         1    UNL1     0.0346
     65 H23         3.8240  -10.9350   13.6420 H         1    UNL1     0.0346
@<TRIPOS>UNITY_ATOM_ATTR
8 1
charge 1
39 1
charge -1
42 1
charge -1
@<TRIPOS>BOND
     1     1     2   ar
     2     1     6   ar
     3     2     3   ar
     4     3     4   ar
     5     3    12   ar
     6     4     5   ar
     7     4    10   ar
     8     5     6   ar
     9     6     7    1
    10     7     8    2
    11     7     9    1
    12    10    11   ar
    13    11    12   ar
    14    11    13    1
    15    13    14   ar
    16    13    18   ar
    17    14    15   ar
    18    15    16   ar
    19    15    31    1
    20    16    17   ar
    21    17    18   ar
    22    17    20    1
    23    18    19    1
    24    20    21   ar
    25    20    25   ar
    26    21    22   ar
    27    22    23   ar
    28    22    27    1
    29    23    24   ar
    30    24    25   ar
    31    25    26    1
    32    27    28    2
    33    27    29    2
    34    27    30    1
    35    31    32    1
    36    32    33    2
    37    32    34   am
    38    34    35    1
    39    35    36    1
    40    35    40    1
    41    36    37    1
    42    37    38   ar
    43    37    39   ar
    44    40    41   ar
    45    40    42   ar
    46     1    43    1
    47     2    44    1
    48     5    45    1
    49     8    46    1
    50     8    47    1
    51     9    48    1
    52     9    49    1
    53    10    50    1
    54    14    51    1
    55    16    52    1
    56    19    53    1
    57    21    54    1
    58    23    55    1
    59    24    56    1
    60    26    57    1
    61    30    58    1
    62    30    59    1
    63    31    60    1
    64    31    61    1
    65    34    62    1
    66    35    63    1
    67    36    64    1
    68    36    65    1
