#REMARK Cluster   6 of Poses:  1 Score: -7.41 kcal/mol
@<TRIPOS>MOLECULE
2536
 52 53 0 0 0
SMALL
GASTEIGER

@<TRIPOS>ATOM
      1 O1          5.7150    4.4360   12.3360 O.3       1    UNL1    -0.4550
      2 O2          7.3810   -2.5750   10.0950 O.3       1    UNL1    -0.4223
      3 O3          5.2000    2.3920   13.2740 O.2       1    UNL1    -0.2505
      4 O4          3.9860    6.5670   12.4660 O.2       1    UNL1    -0.2719
      5 O5          5.5990   -3.9430   10.7170 O.2       1    UNL1    -0.2445
      6 N6          3.3170    5.8090   14.5560 N.am      1    UNL1    -0.3048
      7 N7          6.6620   -5.6040    4.6030 N.pl3     1    UNL1    -0.2464
      8 N8          4.2600   -5.5950    4.4000 N.pl3     1    UNL1    -0.2915
      9 N9          5.5620   -6.3130    2.6680 N.pl3     1    UNL1    -0.2915
     10 C10         5.8740    1.2520   10.6540 C.ar      1    UNL1    -0.0365
     11 C11         5.3260    2.6410   10.8560 C.3       1    UNL1     0.0701
     12 C12         6.4810    0.9110    9.4450 C.ar      1    UNL1    -0.0546
     13 C13         5.7740    0.3070   11.6750 C.ar      1    UNL1    -0.0546
     14 C14         6.8870   -1.3200   10.2780 C.ar      1    UNL1     0.1320
     15 C15         6.9870   -0.3750    9.2570 C.ar      1    UNL1    -0.0189
     16 C16         6.2800   -0.9790   11.4870 C.ar      1    UNL1    -0.0189
     17 C17         5.3960    3.0990   12.2940 C.2       1    UNL1     0.3119
     18 C18         5.4830    5.0940   13.5630 C.3       1    UNL1     0.1682
     19 C19         6.4720   -4.0890    8.5030 C.ar      1    UNL1     0.0596
     20 C20         4.1980    5.8920   13.4770 C.2       1    UNL1     0.2528
     21 C21         6.4050   -3.5520    9.8860 C.2       1    UNL1     0.3444
     22 C22         6.8030   -5.4270    8.2900 C.ar      1    UNL1    -0.0445
     23 C23         6.2050   -3.2550    7.4170 C.ar      1    UNL1    -0.0445
     24 C24         6.5990   -5.0980    5.9060 C.ar      1    UNL1     0.0999
     25 C25         6.8660   -5.9320    6.9910 C.ar      1    UNL1    -0.0224
     26 C26         6.2680   -3.7600    6.1190 C.ar      1    UNL1    -0.0224
     27 C27         3.5260    5.0100   15.7610 C.3       1    UNL1     0.0029
     28 C28         2.0640    6.5520   14.5160 C.3       1    UNL1     0.0029
     29 C29         5.5440   -5.8160    3.9510 C.cat     1    UNL1     0.3458
     30 H1          7.5310   -5.7990    4.1840 H         1    UNL1     0.2647
     31 H2          3.5410   -6.2250    4.1650 H         1    UNL1     0.2546
     32 H3          4.0610   -4.8060    4.9550 H         1    UNL1     0.2546
     33 H4          4.8910   -6.9770    2.3880 H         1    UNL1     0.2546
     34 H5          6.2450   -6.0040    2.0310 H         1    UNL1     0.2546
     35 H6          4.3030    2.6540   10.5430 H         1    UNL1     0.0426
     36 H7          5.9290    3.3100   10.2780 H         1    UNL1     0.0426
     37 H8          6.5550    1.6100    8.6900 H         1    UNL1     0.0622
     38 H9          5.3250    0.5590   12.5700 H         1    UNL1     0.0622
     39 H10         7.4360   -0.6270    8.3630 H         1    UNL1     0.0654
     40 H11         6.2060   -1.6780   12.2430 H         1    UNL1     0.0654
     41 H12         6.2980    5.7550   13.7720 H         1    UNL1     0.0796
     42 H13         5.3990    4.3690   14.3450 H         1    UNL1     0.0796
     43 H14         7.0010   -6.0440    9.0940 H         1    UNL1     0.0627
     44 H15         5.9600   -2.2650    7.5750 H         1    UNL1     0.0627
     45 H16         7.1110   -6.9220    6.8340 H         1    UNL1     0.0652
     46 H17         6.0700   -3.1430    5.3150 H         1    UNL1     0.0652
     47 H18         4.4680    4.5060   15.6960 H         1    UNL1     0.0428
     48 H19         2.7410    4.2890   15.8520 H         1    UNL1     0.0428
     49 H20         3.5240    5.6510   16.6180 H         1    UNL1     0.0428
     50 H21         2.0040    7.1020   13.6000 H         1    UNL1     0.0428
     51 H22         2.0240    7.2300   15.3420 H         1    UNL1     0.0428
     52 H23         1.2420    5.8690   14.5760 H         1    UNL1     0.0428
@<TRIPOS>UNITY_ATOM_ATTR
7 1
charge 1
@<TRIPOS>BOND
     1     1    17    1
     2     1    18    1
     3     2    14    1
     4     2    21    1
     5     3    17    2
     6     4    20    2
     7     5    21    2
     8     6    20   am
     9     6    27    1
    10     6    28    1
    11     7    24    1
    12     7    29    2
    13     8    29    1
    14     9    29    1
    15    10    11    1
    16    10    12   ar
    17    10    13   ar
    18    11    17    1
    19    12    15   ar
    20    13    16   ar
    21    14    15   ar
    22    14    16   ar
    23    18    20    1
    24    19    21    1
    25    19    22   ar
    26    19    23   ar
    27    22    25   ar
    28    23    26   ar
    29    24    25   ar
    30    24    26   ar
    31     7    30    1
    32     8    31    1
    33     8    32    1
    34     9    33    1
    35     9    34    1
    36    11    35    1
    37    11    36    1
    38    12    37    1
    39    13    38    1
    40    15    39    1
    41    16    40    1
    42    18    41    1
    43    18    42    1
    44    22    43    1
    45    23    44    1
    46    25    45    1
    47    26    46    1
    48    27    47    1
    49    27    48    1
    50    27    49    1
    51    28    50    1
    52    28    51    1
    53    28    52    1
