#REMARK Cluster   9 of Poses:  2 Score: -8.26 kcal/mol
@<TRIPOS>MOLECULE
*****
 65 68 0 0 0
SMALL
GASTEIGER

@<TRIPOS>ATOM
      1 C1          4.8180   -4.4800    4.5360 C.ar      1    UNL1    -0.0449
      2 C2          4.4830   -3.4030    5.3640 C.ar      1    UNL1    -0.0334
      3 C3          5.2030   -3.2230    6.5580 C.ar      1    UNL1     0.0895
      4 C4          6.2010   -4.1300    6.8980 C.ar      1    UNL1     0.0673
      5 C5          6.5460   -5.2260    6.1100 C.ar      1    UNL1    -0.0215
      6 C6          5.8330   -5.3630    4.9130 C.ar      1    UNL1     0.0629
      7 C7          6.1920   -6.4740    4.0090 C.2       1    UNL1     0.2662
      8 N8          5.4090   -6.7620    3.0140 N.2       1    UNL1    -0.2884
      9 N9          7.3640   -7.1530    4.2840 N.pl3     1    UNL1    -0.2497
     10 N10         6.6910   -3.6710    8.0920 N.ar      1    UNL1    -0.3378
     11 C11         6.0090   -2.5240    8.4210 C.ar      1    UNL1     0.1428
     12 N12         5.0950   -2.2400    7.5140 N.ar      1    UNL1    -0.2276
     13 C13         6.2810   -1.7740    9.6360 C.ar      1    UNL1     0.0595
     14 C14         7.3870   -0.9200    9.6660 C.ar      1    UNL1    -0.0439
     15 C15         7.6890   -0.1880   10.8180 C.ar      1    UNL1    -0.0372
     16 C16         6.8930   -0.3600   11.9630 C.ar      1    UNL1    -0.0467
     17 C17         5.7570   -1.1960   11.9630 C.ar      1    UNL1     0.0281
     18 C18         5.4630   -1.8830   10.7710 C.ar      1    UNL1     0.1353
     19 O19         4.3540   -2.6880   10.7080 O.3       1    UNL1    -0.5054
     20 C20         4.9020   -1.2700   13.1690 C.ar      1    UNL1     0.0289
     21 C21         4.6230   -2.5240   13.7420 C.ar      1    UNL1    -0.0240
     22 C22         3.7780   -2.6400   14.8530 C.ar      1    UNL1     0.1058
     23 C23         3.2340   -1.5140   15.4580 C.ar      1    UNL1    -0.0319
     24 C24         3.5130   -0.2590   14.9190 C.ar      1    UNL1    -0.0177
     25 C25         4.3180   -0.1470   13.7790 C.ar      1    UNL1     0.1248
     26 O26         4.5420    1.1120   13.2900 O.3       1    UNL1    -0.5062
     27 S27         3.4140   -4.2750   15.4090 S.O2      1    UNL1     0.0560
     28 O28         2.5820   -4.1250   16.5870 O.2       1    UNL1    -0.1533
     29 O29         2.9500   -5.0040   14.2450 O.2       1    UNL1    -0.1533
     30 N30         4.9230   -4.9090   15.8930 N.3       1    UNL1    -0.2035
     31 C31         8.8460    0.7780   10.8210 C.3       1    UNL1     0.0491
     32 C32         8.5900    2.0300   10.0000 C.2       1    UNL1     0.2178
     33 O33         7.8930    2.0680    8.9900 O.2       1    UNL1    -0.2754
     34 N34         9.2210    3.1350   10.5440 N.am      1    UNL1    -0.3067
     35 C35        10.4350    3.6960    9.9650 C.3       1    UNL1     0.0676
     36 C36        10.1490    4.6080    8.7650 C.3       1    UNL1     0.0105
     37 C37        11.3700    4.8760    7.9140 C.2       1    UNL1     0.0439
     38 O38        12.5250    4.9390    8.3110 O.co2     1    UNL1    -0.5497
     39 O39        11.0030    5.1270    6.6310 O.co2     1    UNL1    -0.5497
     40 C40        11.1080    4.4670   11.0850 C.2       1    UNL1     0.0623
     41 O41        12.2550    4.2600   11.4630 O.co2     1    UNL1    -0.5479
     42 O42        10.3190    5.4420   11.6060 O.co2     1    UNL1    -0.5479
     43 H1          4.3140   -4.6230    3.6470 H         1    UNL1     0.0627
     44 H2          3.7240   -2.7540    5.1030 H         1    UNL1     0.0640
     45 H3          7.2800   -5.8950    6.3910 H         1    UNL1     0.0647
     46 H4          4.5860   -6.2410    2.8680 H         1    UNL1     0.3009
     47 H5          5.6380   -7.5000    2.4050 H         1    UNL1     0.3009
     48 H6          7.9820   -7.3850    3.5530 H         1    UNL1     0.2883
     49 H7          7.5810   -7.4060    5.2100 H         1    UNL1     0.2883
     50 H8          7.4070   -4.0900    8.6220 H         1    UNL1     0.1674
     51 H9          7.9860   -0.8290    8.8310 H         1    UNL1     0.0629
     52 H10         7.1470    0.1400   12.8290 H         1    UNL1     0.0628
     53 H11         3.5900   -2.3980   10.2510 H         1    UNL1     0.2922
     54 H12         5.0470   -3.3730   13.3370 H         1    UNL1     0.0644
     55 H13         2.6330   -1.6050   16.2920 H         1    UNL1     0.0638
     56 H14         3.1270    0.5890   15.3620 H         1    UNL1     0.0655
     57 H15         4.0830    1.8440   13.6530 H         1    UNL1     0.2922
     58 H16         5.6090   -4.1550   15.9400 H         1    UNL1     0.1442
     59 H17         5.2320   -5.6070   15.2160 H         1    UNL1     0.1442
     60 H18         9.7040    0.2800   10.4200 H         1    UNL1     0.0407
     61 H19         8.9940    1.0900   11.8340 H         1    UNL1     0.0407
     62 H20         8.8370    3.5560   11.3480 H         1    UNL1     0.1493
     63 H21        11.0600    2.9170    9.5820 H         1    UNL1     0.0564
     64 H22         9.7770    5.5420    9.1280 H         1    UNL1     0.0346
     65 H23         9.4360    4.1030    8.1460 H         1    UNL1     0.0346
@<TRIPOS>UNITY_ATOM_ATTR
8 1
charge 1
39 1
charge -1
42 1
charge -1
@<TRIPOS>BOND
     1     1     2   ar
     2     1     6   ar
     3     2     3   ar
     4     3     4   ar
     5     3    12   ar
     6     4     5   ar
     7     4    10   ar
     8     5     6   ar
     9     6     7    1
    10     7     8    2
    11     7     9    1
    12    10    11   ar
    13    11    12   ar
    14    11    13    1
    15    13    14   ar
    16    13    18   ar
    17    14    15   ar
    18    15    16   ar
    19    15    31    1
    20    16    17   ar
    21    17    18   ar
    22    17    20    1
    23    18    19    1
    24    20    21   ar
    25    20    25   ar
    26    21    22   ar
    27    22    23   ar
    28    22    27    1
    29    23    24   ar
    30    24    25   ar
    31    25    26    1
    32    27    28    2
    33    27    29    2
    34    27    30    1
    35    31    32    1
    36    32    33    2
    37    32    34   am
    38    34    35    1
    39    35    36    1
    40    35    40    1
    41    36    37    1
    42    37    38   ar
    43    37    39   ar
    44    40    41   ar
    45    40    42   ar
    46     1    43    1
    47     2    44    1
    48     5    45    1
    49     8    46    1
    50     8    47    1
    51     9    48    1
    52     9    49    1
    53    10    50    1
    54    14    51    1
    55    16    52    1
    56    19    53    1
    57    21    54    1
    58    23    55    1
    59    24    56    1
    60    26    57    1
    61    30    58    1
    62    30    59    1
    63    31    60    1
    64    31    61    1
    65    34    62    1
    66    35    63    1
    67    36    64    1
    68    36    65    1
