#REMARK Cluster   9 of Poses:  1 Score: -7.33 kcal/mol
@<TRIPOS>MOLECULE
64949
 45 46 0 0 0
SMALL
GASTEIGER

@<TRIPOS>ATOM
      1 O1          5.4380    0.0520    9.7550 O.3       1    UNL1    -0.4918
      2 O2          7.7130   -3.7380    8.3990 O.3       1    UNL1    -0.4918
      3 N3          9.8570    4.4910   11.2540 N.pl3     1    UNL1    -0.2497
      4 N4          3.9290   -5.5320    3.5050 N.pl3     1    UNL1    -0.2497
      5 N5          9.4020    4.9800    9.0140 N.2       1    UNL1    -0.2884
      6 N6          5.8990   -6.7100    3.0690 N.2       1    UNL1    -0.2884
      7 C7          6.9750   -1.7740    9.5820 C.3       1    UNL1     0.0157
      8 C8          5.8060   -1.1830   10.3530 C.3       1    UNL1     0.0927
      9 C9          6.8590   -3.2840    9.4410 C.3       1    UNL1     0.0927
     10 C10         6.3500    1.0720    9.8320 C.ar      1    UNL1     0.1205
     11 C11         7.1070   -4.2590    7.2860 C.ar      1    UNL1     0.1205
     12 C12         5.9060    2.3810    9.9840 C.ar      1    UNL1    -0.0191
     13 C13         6.5740   -3.4030    6.3290 C.ar      1    UNL1    -0.0191
     14 C14         7.7090    0.7880    9.7580 C.ar      1    UNL1    -0.0191
     15 C15         7.0320   -5.6380    7.1250 C.ar      1    UNL1    -0.0191
     16 C16         8.1990    3.1420    9.9900 C.ar      1    UNL1     0.0610
     17 C17         5.8800   -5.3150    5.0260 C.ar      1    UNL1     0.0610
     18 C18         6.8340    3.4190   10.0630 C.ar      1    UNL1    -0.0436
     19 C19         5.9590   -3.9330    5.1950 C.ar      1    UNL1    -0.0436
     20 C20         8.6360    1.8260    9.8370 C.ar      1    UNL1    -0.0436
     21 C21         6.4170   -6.1680    5.9910 C.ar      1    UNL1    -0.0436
     22 C22         9.1670    4.2250   10.0730 C.2       1    UNL1     0.2662
     23 C23         5.2380   -5.8680    3.8440 C.2       1    UNL1     0.2662
     24 H1         10.1780    3.7490   11.8140 H         1    UNL1     0.2883
     25 H2         10.0230    5.4220   11.5270 H         1    UNL1     0.2883
     26 H3          3.7560   -4.9290    2.7460 H         1    UNL1     0.2883
     27 H4          3.1770   -5.8960    4.0250 H         1    UNL1     0.2883
     28 H5         10.0560    5.7130    9.0680 H         1    UNL1     0.3009
     29 H6          8.9220    4.8090    8.1710 H         1    UNL1     0.3009
     30 H7          5.4660   -7.0860    2.2690 H         1    UNL1     0.3009
     31 H8          6.8240   -6.9630    3.2930 H         1    UNL1     0.3009
     32 H9          7.8820   -1.5440   10.1000 H         1    UNL1     0.0331
     33 H10         6.9710   -1.3490    8.6000 H         1    UNL1     0.0331
     34 H11         4.9770   -1.8590   10.3220 H         1    UNL1     0.0697
     35 H12         6.0890   -1.0230   11.3730 H         1    UNL1     0.0697
     36 H13         7.1440   -3.7490   10.3620 H         1    UNL1     0.0697
     37 H14         5.8470   -3.5400    9.2050 H         1    UNL1     0.0697
     38 H15         4.8960    2.5830   10.0370 H         1    UNL1     0.0654
     39 H16         6.6340   -2.3810    6.4560 H         1    UNL1     0.0654
     40 H17         8.0290   -0.1870    9.6460 H         1    UNL1     0.0654
     41 H18         7.4310   -6.2660    7.8400 H         1    UNL1     0.0654
     42 H19         6.5110    4.3930   10.1750 H         1    UNL1     0.0627
     43 H20         5.5610   -3.3020    4.4810 H         1    UNL1     0.0627
     44 H21         9.6460    1.6210    9.7840 H         1    UNL1     0.0627
     45 H22         6.3590   -7.1900    5.8660 H         1    UNL1     0.0627
@<TRIPOS>UNITY_ATOM_ATTR
5 1
charge 1
6 1
charge 1
@<TRIPOS>BOND
     1     1     8    1
     2     1    10    1
     3     2     9    1
     4     2    11    1
     5     3    22    1
     6     4    23    1
     7     5    22    2
     8     6    23    2
     9     7     8    1
    10     7     9    1
    11    10    12   ar
    12    10    14   ar
    13    11    13   ar
    14    11    15   ar
    15    12    18   ar
    16    13    19   ar
    17    14    20   ar
    18    15    21   ar
    19    16    18   ar
    20    16    20   ar
    21    16    22    1
    22    17    19   ar
    23    17    21   ar
    24    17    23    1
    25     3    24    1
    26     3    25    1
    27     4    26    1
    28     4    27    1
    29     5    28    1
    30     5    29    1
    31     6    30    1
    32     6    31    1
    33     7    32    1
    34     7    33    1
    35     8    34    1
    36     8    35    1
    37     9    36    1
    38     9    37    1
    39    12    38    1
    40    13    39    1
    41    14    40    1
    42    15    41    1
    43    18    42    1
    44    19    43    1
    45    20    44    1
    46    21    45    1
