#REMARK Cluster   1 of Poses:  1 Score: -8.02 kcal/mol
@<TRIPOS>MOLECULE
2536
 52 53 0 0 0
SMALL
GASTEIGER

@<TRIPOS>ATOM
      1 O1          3.5700   -0.2110   13.4850 O.3       1    UNL1    -0.4550
      2 O2          6.5480   -2.9280    7.4020 O.3       1    UNL1    -0.4223
      3 O3          5.0890   -1.9380   13.6660 O.2       1    UNL1    -0.2505
      4 O4          3.3140    1.9800   14.9160 O.2       1    UNL1    -0.2719
      5 O5          5.2830   -1.9270    5.7200 O.2       1    UNL1    -0.2445
      6 N6          1.2300    1.4090   15.7660 N.am      1    UNL1    -0.3048
      7 N7          5.8830   -7.9940    3.6940 N.pl3     1    UNL1    -0.2464
      8 N8          6.6800   -9.0610    5.7040 N.pl3     1    UNL1    -0.2915
      9 N9          6.2890  -10.2910    3.8210 N.pl3     1    UNL1    -0.2915
     10 C10         4.1970   -2.2510   10.7550 C.ar      1    UNL1    -0.0365
     11 C11         3.3430   -2.0050   11.9720 C.3       1    UNL1     0.0701
     12 C12         4.1810   -3.4990   10.1320 C.ar      1    UNL1    -0.0546
     13 C13         5.0030   -1.2300   10.2500 C.ar      1    UNL1    -0.0546
     14 C14         5.7770   -2.7060    8.5010 C.ar      1    UNL1     0.1320
     15 C15         4.9710   -3.7270    9.0060 C.ar      1    UNL1    -0.0189
     16 C16         5.7930   -1.4580    9.1230 C.ar      1    UNL1    -0.0189
     17 C17         4.1190   -1.4200   13.1280 C.2       1    UNL1     0.3119
     18 C18         2.6040   -0.2440   14.5140 C.3       1    UNL1     0.1682
     19 C19         5.8580   -4.2340    5.5390 C.ar      1    UNL1     0.0596
     20 C20         2.4190    1.1460   15.0840 C.2       1    UNL1     0.2528
     21 C21         5.8490   -2.9010    6.1930 C.2       1    UNL1     0.3444
     22 C22         6.7800   -5.2010    5.9390 C.ar      1    UNL1    -0.0445
     23 C23         4.9440   -4.5190    4.5250 C.ar      1    UNL1    -0.0445
     24 C24         5.8740   -6.7380    4.3100 C.ar      1    UNL1     0.0999
     25 C25         6.7890   -6.4530    5.3240 C.ar      1    UNL1    -0.0224
     26 C26         4.9520   -5.7710    3.9100 C.ar      1    UNL1    -0.0224
     27 C27         0.1440    0.4540   15.9720 C.3       1    UNL1     0.0029
     28 C28         1.0030    2.7360   16.3250 C.3       1    UNL1     0.0029
     29 C29         6.2660   -9.0380    4.3890 C.cat     1    UNL1     0.3458
     30 H1          5.6060   -8.0920    2.7550 H         1    UNL1     0.2647
     31 H2          7.0460   -9.8890    6.0910 H         1    UNL1     0.2546
     32 H3          6.6090   -8.2490    6.2560 H         1    UNL1     0.2546
     33 H4          5.7330  -11.0110    4.1960 H         1    UNL1     0.2546
     34 H5          6.8620  -10.4660    3.0400 H         1    UNL1     0.2546
     35 H6          2.9170   -2.9360   12.2830 H         1    UNL1     0.0426
     36 H7          2.5920   -1.2940   11.6980 H         1    UNL1     0.0426
     37 H8          3.5850   -4.2540   10.5060 H         1    UNL1     0.0622
     38 H9          5.0140   -0.3060   10.7100 H         1    UNL1     0.0622
     39 H10         4.9590   -4.6510    8.5460 H         1    UNL1     0.0654
     40 H11         6.3890   -0.7030    8.7500 H         1    UNL1     0.0654
     41 H12         2.9320   -0.9050   15.2890 H         1    UNL1     0.0796
     42 H13         1.6740   -0.5910   14.1160 H         1    UNL1     0.0796
     43 H14         7.4570   -4.9900    6.6890 H         1    UNL1     0.0627
     44 H15         4.2610   -3.8040    4.2290 H         1    UNL1     0.0627
     45 H16         7.4710   -7.1680    5.6200 H         1    UNL1     0.0652
     46 H17         4.2760   -5.9820    3.1600 H         1    UNL1     0.0652
     47 H18         0.4040   -0.4840   15.5290 H         1    UNL1     0.0428
     48 H19        -0.7500    0.8280   15.5180 H         1    UNL1     0.0428
     49 H20        -0.0190    0.3200   17.0210 H         1    UNL1     0.0428
     50 H21         1.8500    3.3580   16.1230 H         1    UNL1     0.0428
     51 H22         0.8610    2.6580   17.3830 H         1    UNL1     0.0428
     52 H23         0.1300    3.1660   15.8790 H         1    UNL1     0.0428
@<TRIPOS>UNITY_ATOM_ATTR
7 1
charge 1
@<TRIPOS>BOND
     1     1    17    1
     2     1    18    1
     3     2    14    1
     4     2    21    1
     5     3    17    2
     6     4    20    2
     7     5    21    2
     8     6    20   am
     9     6    27    1
    10     6    28    1
    11     7    24    1
    12     7    29    2
    13     8    29    1
    14     9    29    1
    15    10    11    1
    16    10    12   ar
    17    10    13   ar
    18    11    17    1
    19    12    15   ar
    20    13    16   ar
    21    14    15   ar
    22    14    16   ar
    23    18    20    1
    24    19    21    1
    25    19    22   ar
    26    19    23   ar
    27    22    25   ar
    28    23    26   ar
    29    24    25   ar
    30    24    26   ar
    31     7    30    1
    32     8    31    1
    33     8    32    1
    34     9    33    1
    35     9    34    1
    36    11    35    1
    37    11    36    1
    38    12    37    1
    39    13    38    1
    40    15    39    1
    41    16    40    1
    42    18    41    1
    43    18    42    1
    44    22    43    1
    45    23    44    1
    46    25    45    1
    47    26    46    1
    48    27    47    1
    49    27    48    1
    50    27    49    1
    51    28    50    1
    52    28    51    1
    53    28    52    1
