#REMARK Cluster  15 of Poses:  1 Score: -7.21 kcal/mol
@<TRIPOS>MOLECULE
*****
 65 68 0 0 0
SMALL
GASTEIGER

@<TRIPOS>ATOM
      1 C1          1.5430   -8.6660   12.8490 C.ar      1    UNL1    -0.0449
      2 C2          1.7700   -7.3410   12.4600 C.ar      1    UNL1    -0.0334
      3 C3          2.9860   -7.0250   11.8270 C.ar      1    UNL1     0.0895
      4 C4          3.9350   -8.0230   11.6340 C.ar      1    UNL1     0.0673
      5 C5          3.7520   -9.3470   12.0280 C.ar      1    UNL1    -0.0215
      6 C6          2.5220   -9.6390   12.6270 C.ar      1    UNL1     0.0629
      7 C7          2.2470  -11.0360   13.0160 C.2       1    UNL1     0.2662
      8 N8          2.2900  -11.3670   14.2710 N.2       1    UNL1    -0.2884
      9 N9          1.9570  -11.9250   11.9980 N.pl3     1    UNL1    -0.2497
     10 N10         4.9750   -7.3900   11.0050 N.ar      1    UNL1    -0.3378
     11 C11         4.6280   -6.0730   10.8250 C.ar      1    UNL1     0.1428
     12 N12         3.4330   -5.8250   11.3250 N.ar      1    UNL1    -0.2276
     13 C13         5.5090   -5.1120   10.1830 C.ar      1    UNL1     0.0595
     14 C14         6.1630   -5.4810    9.0040 C.ar      1    UNL1    -0.0439
     15 C15         7.0270   -4.5900    8.3610 C.ar      1    UNL1    -0.0372
     16 C16         7.2680   -3.3350    8.9440 C.ar      1    UNL1    -0.0467
     17 C17         6.6110   -2.9200   10.1200 C.ar      1    UNL1     0.0281
     18 C18         5.7180   -3.8300   10.7140 C.ar      1    UNL1     0.1353
     19 O19         5.0310   -3.4670   11.8450 O.3       1    UNL1    -0.5054
     20 C20         6.8340   -1.5520   10.6400 C.ar      1    UNL1     0.0289
     21 C21         6.5160   -0.4450    9.8330 C.ar      1    UNL1    -0.0240
     22 C22         6.7590    0.8630   10.2690 C.ar      1    UNL1     0.1058
     23 C23         7.2710    1.1110   11.5360 C.ar      1    UNL1    -0.0319
     24 C24         7.5750    0.0300   12.3620 C.ar      1    UNL1    -0.0177
     25 C25         7.3780   -1.2800   11.9070 C.ar      1    UNL1     0.1248
     26 O26         7.7110   -2.2970   12.7600 O.3       1    UNL1    -0.5062
     27 S27         6.4240    2.1600    9.1200 S.O2      1    UNL1     0.0560
     28 O28         7.2770    3.2690    9.5030 O.2       1    UNL1    -0.1533
     29 O29         6.5080    1.5650    7.8010 O.2       1    UNL1    -0.1533
     30 N30         4.8020    2.5960    9.4270 N.3       1    UNL1    -0.2035
     31 C31         7.6780   -4.9730    7.0560 C.3       1    UNL1     0.0491
     32 C32         6.8820   -4.5450    5.8350 C.2       1    UNL1     0.2178
     33 O33         6.2710   -3.4840    5.7410 O.2       1    UNL1    -0.2754
     34 N34         6.9500   -5.4880    4.8250 N.am      1    UNL1    -0.3067
     35 C35         5.8380   -6.3820    4.5250 C.3       1    UNL1     0.0676
     36 C36         5.1340   -6.0270    3.2100 C.3       1    UNL1     0.0105
     37 C37         3.8210   -5.3040    3.4110 C.2       1    UNL1     0.0439
     38 O38         3.5600   -4.5240    4.3150 O.co2     1    UNL1    -0.5497
     39 O39         2.9160   -5.7050    2.4820 O.co2     1    UNL1    -0.5497
     40 C40         6.4340   -7.7750    4.4650 C.2       1    UNL1     0.0623
     41 O41         6.4500   -8.4680    3.4550 O.co2     1    UNL1    -0.5479
     42 O42         6.9870   -8.1670    5.6420 O.co2     1    UNL1    -0.5479
     43 H1          0.6520   -8.9250   13.2990 H         1    UNL1     0.0627
     44 H2          1.0610   -6.6120   12.6330 H         1    UNL1     0.0640
     45 H3          4.4790  -10.0660   11.8870 H         1    UNL1     0.0647
     46 H4          2.5030  -10.6890   14.9520 H         1    UNL1     0.3009
     47 H5          2.1080  -12.2960   14.5420 H         1    UNL1     0.3009
     48 H6          1.5700  -11.5980   11.1540 H         1    UNL1     0.2883
     49 H7          2.1360  -12.8860   12.1180 H         1    UNL1     0.2883
     50 H8          5.8230   -7.8070   10.7300 H         1    UNL1     0.1674
     51 H9          6.0060   -6.4190    8.6040 H         1    UNL1     0.0629
     52 H10         7.9460   -2.6980    8.4970 H         1    UNL1     0.0628
     53 H11         4.2230   -2.9990   11.7730 H         1    UNL1     0.2922
     54 H12         6.0960   -0.6000    8.9030 H         1    UNL1     0.0644
     55 H13         7.4240    2.0780   11.8610 H         1    UNL1     0.0638
     56 H14         7.9460    0.1950   13.3100 H         1    UNL1     0.0655
     57 H15         8.5950   -2.3890   13.0590 H         1    UNL1     0.2922
     58 H16         4.7140    2.9200   10.3900 H         1    UNL1     0.1442
     59 H17         4.2000    1.7850    9.2850 H         1    UNL1     0.1442
     60 H18         7.7880   -6.0370    7.0320 H         1    UNL1     0.0407
     61 H19         8.6190   -4.4670    7.0130 H         1    UNL1     0.0407
     62 H20         7.7740   -5.5580    4.2920 H         1    UNL1     0.1493
     63 H21         5.0820   -6.3020    5.2780 H         1    UNL1     0.0564
     64 H22         4.9440   -6.9310    2.6710 H         1    UNL1     0.0346
     65 H23         5.7810   -5.3660    2.6720 H         1    UNL1     0.0346
@<TRIPOS>UNITY_ATOM_ATTR
8 1
charge 1
39 1
charge -1
42 1
charge -1
@<TRIPOS>BOND
     1     1     2   ar
     2     1     6   ar
     3     2     3   ar
     4     3     4   ar
     5     3    12   ar
     6     4     5   ar
     7     4    10   ar
     8     5     6   ar
     9     6     7    1
    10     7     8    2
    11     7     9    1
    12    10    11   ar
    13    11    12   ar
    14    11    13    1
    15    13    14   ar
    16    13    18   ar
    17    14    15   ar
    18    15    16   ar
    19    15    31    1
    20    16    17   ar
    21    17    18   ar
    22    17    20    1
    23    18    19    1
    24    20    21   ar
    25    20    25   ar
    26    21    22   ar
    27    22    23   ar
    28    22    27    1
    29    23    24   ar
    30    24    25   ar
    31    25    26    1
    32    27    28    2
    33    27    29    2
    34    27    30    1
    35    31    32    1
    36    32    33    2
    37    32    34   am
    38    34    35    1
    39    35    36    1
    40    35    40    1
    41    36    37    1
    42    37    38   ar
    43    37    39   ar
    44    40    41   ar
    45    40    42   ar
    46     1    43    1
    47     2    44    1
    48     5    45    1
    49     8    46    1
    50     8    47    1
    51     9    48    1
    52     9    49    1
    53    10    50    1
    54    14    51    1
    55    16    52    1
    56    19    53    1
    57    21    54    1
    58    23    55    1
    59    24    56    1
    60    26    57    1
    61    30    58    1
    62    30    59    1
    63    31    60    1
    64    31    61    1
    65    34    62    1
    66    35    63    1
    67    36    64    1
    68    36    65    1
