#REMARK Cluster  10 of Poses:  1 Score: -8.18 kcal/mol
@<TRIPOS>MOLECULE
*****
 65 68 0 0 0
SMALL
GASTEIGER

@<TRIPOS>ATOM
      1 C1          4.9310   -4.5420    4.6210 C.ar      1    UNL1    -0.0449
      2 C2          4.4720   -3.4210    5.3210 C.ar      1    UNL1    -0.0334
      3 C3          5.0020   -3.1610    6.5980 C.ar      1    UNL1     0.0895
      4 C4          5.9380   -4.0360    7.1380 C.ar      1    UNL1     0.0673
      5 C5          6.4010   -5.1730    6.4800 C.ar      1    UNL1    -0.0215
      6 C6          5.8790   -5.3890    5.2000 C.ar      1    UNL1     0.0629
      7 C7          6.3730   -6.5480    4.4300 C.2       1    UNL1     0.2662
      8 N8          5.5210   -7.3180    3.8230 N.2       1    UNL1    -0.2884
      9 N9          7.7400   -6.7460    4.4020 N.pl3     1    UNL1    -0.2497
     10 N10         6.2400   -3.5000    8.3630 N.ar      1    UNL1    -0.3378
     11 C11         5.5140   -2.3440    8.5150 C.ar      1    UNL1     0.1428
     12 N12         4.7480   -2.1240    7.4640 N.ar      1    UNL1    -0.2276
     13 C13         5.5970   -1.5190    9.7090 C.ar      1    UNL1     0.0595
     14 C14         6.0470   -0.2010    9.5870 C.ar      1    UNL1    -0.0439
     15 C15         6.1510    0.6220   10.7120 C.ar      1    UNL1    -0.0372
     16 C16         5.8440    0.0910   11.9750 C.ar      1    UNL1    -0.0467
     17 C17         5.3660   -1.2270   12.1340 C.ar      1    UNL1     0.0281
     18 C18         5.2360   -2.0090   10.9730 C.ar      1    UNL1     0.1353
     19 O19         4.7500   -3.2890   11.0680 O.3       1    UNL1    -0.5054
     20 C20         4.9710   -1.7040   13.4780 C.ar      1    UNL1     0.0289
     21 C21         3.8710   -1.1140   14.1260 C.ar      1    UNL1    -0.0240
     22 C22         3.4970   -1.5030   15.4180 C.ar      1    UNL1     0.1058
     23 C23         4.1670   -2.5250   16.0790 C.ar      1    UNL1    -0.0319
     24 C24         5.2470   -3.1390   15.4480 C.ar      1    UNL1    -0.0177
     25 C25         5.6520   -2.7160   14.1770 C.ar      1    UNL1     0.1248
     26 O26         6.7310   -3.3490   13.6180 O.3       1    UNL1    -0.5062
     27 S27         2.1730   -0.6080   16.1670 S.O2      1    UNL1     0.0560
     28 O28         2.7630    0.5940   16.7240 O.2       1    UNL1    -0.1533
     29 O29         1.1170   -0.5410   15.1760 O.2       1    UNL1    -0.1533
     30 N30         1.6580   -1.6030   17.4550 N.3       1    UNL1    -0.2035
     31 C31         6.5770    2.0600   10.5620 C.3       1    UNL1     0.0491
     32 C32         7.7890    2.2420    9.6640 C.2       1    UNL1     0.2178
     33 O33         8.4660    1.3200    9.2170 O.2       1    UNL1    -0.2754
     34 N34         8.0250    3.5770    9.3890 N.am      1    UNL1    -0.3067
     35 C35         9.1030    4.3200   10.0290 C.3       1    UNL1     0.0676
     36 C36         9.0640    4.2150   11.5590 C.3       1    UNL1     0.0105
     37 C37         9.3860    5.5170   12.2560 C.2       1    UNL1     0.0439
     38 O38         8.8740    6.6030   12.0260 O.co2     1    UNL1    -0.5497
     39 O39        10.4030    5.3400   13.1370 O.co2     1    UNL1    -0.5497
     40 C40        10.3900    3.7390    9.4760 C.2       1    UNL1     0.0623
     41 O41        11.0820    2.9220   10.0710 O.co2     1    UNL1    -0.5479
     42 O42        10.6820    4.1900    8.2280 O.co2     1    UNL1    -0.5479
     43 H1          4.5680   -4.7430    3.6760 H         1    UNL1     0.0627
     44 H2          3.7600   -2.7970    4.9100 H         1    UNL1     0.0640
     45 H3          7.0860   -5.8150    6.9090 H         1    UNL1     0.0647
     46 H4          4.5570   -7.1260    3.8790 H         1    UNL1     0.3009
     47 H5          5.8390   -8.0930    3.3070 H         1    UNL1     0.3009
     48 H6          8.2390   -6.6170    3.5630 H         1    UNL1     0.2883
     49 H7          8.2150   -7.0160    5.2210 H         1    UNL1     0.2883
     50 H8          6.8690   -3.8790    9.0200 H         1    UNL1     0.1674
     51 H9          6.3050    0.1670    8.6580 H         1    UNL1     0.0629
     52 H10         5.9710    0.6820   12.8110 H         1    UNL1     0.0628
     53 H11         3.9840   -3.5350   10.5890 H         1    UNL1     0.2922
     54 H12         3.3310   -0.3800   13.6410 H         1    UNL1     0.0644
     55 H13         3.8690   -2.8250   17.0210 H         1    UNL1     0.0638
     56 H14         5.7500   -3.9070   15.9200 H         1    UNL1     0.0655
     57 H15         7.5050   -2.8630   13.4140 H         1    UNL1     0.2922
     58 H16         0.6930   -1.3760   17.6950 H         1    UNL1     0.1442
     59 H17         2.2560   -1.4450   18.2660 H         1    UNL1     0.1442
     60 H18         6.8120    2.4470   11.5310 H         1    UNL1     0.0407
     61 H19         5.7640    2.5830   10.1030 H         1    UNL1     0.0407
     62 H20         7.4470    4.0400    8.7400 H         1    UNL1     0.1493
     63 H21         9.0120    5.3650    9.8180 H         1    UNL1     0.0564
     64 H22         9.7780    3.4790   11.8670 H         1    UNL1     0.0346
     65 H23         8.0660    3.9460   11.8330 H         1    UNL1     0.0346
@<TRIPOS>UNITY_ATOM_ATTR
8 1
charge 1
39 1
charge -1
42 1
charge -1
@<TRIPOS>BOND
     1     1     2   ar
     2     1     6   ar
     3     2     3   ar
     4     3     4   ar
     5     3    12   ar
     6     4     5   ar
     7     4    10   ar
     8     5     6   ar
     9     6     7    1
    10     7     8    2
    11     7     9    1
    12    10    11   ar
    13    11    12   ar
    14    11    13    1
    15    13    14   ar
    16    13    18   ar
    17    14    15   ar
    18    15    16   ar
    19    15    31    1
    20    16    17   ar
    21    17    18   ar
    22    17    20    1
    23    18    19    1
    24    20    21   ar
    25    20    25   ar
    26    21    22   ar
    27    22    23   ar
    28    22    27    1
    29    23    24   ar
    30    24    25   ar
    31    25    26    1
    32    27    28    2
    33    27    29    2
    34    27    30    1
    35    31    32    1
    36    32    33    2
    37    32    34   am
    38    34    35    1
    39    35    36    1
    40    35    40    1
    41    36    37    1
    42    37    38   ar
    43    37    39   ar
    44    40    41   ar
    45    40    42   ar
    46     1    43    1
    47     2    44    1
    48     5    45    1
    49     8    46    1
    50     8    47    1
    51     9    48    1
    52     9    49    1
    53    10    50    1
    54    14    51    1
    55    16    52    1
    56    19    53    1
    57    21    54    1
    58    23    55    1
    59    24    56    1
    60    26    57    1
    61    30    58    1
    62    30    59    1
    63    31    60    1
    64    31    61    1
    65    34    62    1
    66    35    63    1
    67    36    64    1
    68    36    65    1
