#REMARK Cluster   5 of Poses:  3 Score: -7.61 kcal/mol
@<TRIPOS>MOLECULE
64949
 45 46 0 0 0
SMALL
GASTEIGER

@<TRIPOS>ATOM
      1 O1          7.6740    0.0720   10.7130 O.3       1    UNL1    -0.4918
      2 O2          6.6650   -2.7940    8.1450 O.3       1    UNL1    -0.4918
      3 N3         11.6290    5.0980    9.9480 N.pl3     1    UNL1    -0.2497
      4 N4          6.6770   -7.9810    4.3260 N.pl3     1    UNL1    -0.2497
      5 N5         10.0170    5.4780    8.2990 N.2       1    UNL1    -0.2884
      6 N6          5.5680   -6.3990    3.0120 N.2       1    UNL1    -0.2884
      7 C7          6.1150   -0.6260    9.0370 C.3       1    UNL1     0.0157
      8 C8          7.4630   -0.8890    9.6880 C.3       1    UNL1     0.0927
      9 C9          5.6410   -1.8110    8.2100 C.3       1    UNL1     0.0927
     10 C10         8.3560    1.2090   10.3640 C.ar      1    UNL1     0.1205
     11 C11         6.5450   -3.7480    7.1670 C.ar      1    UNL1     0.1205
     12 C12         9.6900    1.3490   10.7280 C.ar      1    UNL1    -0.0191
     13 C13         7.0980   -5.0080    7.3640 C.ar      1    UNL1    -0.0191
     14 C14         7.7070    2.2080    9.6480 C.ar      1    UNL1    -0.0191
     15 C15         5.8710   -3.4450    5.9900 C.ar      1    UNL1    -0.0191
     16 C16         9.7410    3.5120    9.6540 C.ar      1    UNL1     0.0610
     17 C17         6.3000   -5.6830    5.1860 C.ar      1    UNL1     0.0610
     18 C18        10.3850    2.5050   10.3720 C.ar      1    UNL1    -0.0436
     19 C19         6.9750   -5.9790    6.3700 C.ar      1    UNL1    -0.0436
     20 C20         8.4020    3.3640    9.2920 C.ar      1    UNL1    -0.0436
     21 C21         5.7480   -4.4160    4.9960 C.ar      1    UNL1    -0.0436
     22 C22        10.4650    4.7180    9.2830 C.2       1    UNL1     0.2662
     23 C23         6.1720   -6.6950    4.1500 C.2       1    UNL1     0.2662
     24 H1         12.3100    4.4230   10.1740 H         1    UNL1     0.2883
     25 H2         11.7710    6.0410   10.1920 H         1    UNL1     0.2883
     26 H3          6.6830   -8.6150    3.5730 H         1    UNL1     0.2883
     27 H4          7.0290   -8.2560    5.2030 H         1    UNL1     0.2883
     28 H5         10.5060    6.2940    8.0460 H         1    UNL1     0.3009
     29 H6          9.1950    5.2270    7.8190 H         1    UNL1     0.3009
     30 H7          5.4800   -7.0830    2.3090 H         1    UNL1     0.3009
     31 H8          5.2070   -5.4950    2.8670 H         1    UNL1     0.3009
     32 H9          6.2010    0.2290    8.3980 H         1    UNL1     0.0331
     33 H10         5.4000   -0.4580    9.8140 H         1    UNL1     0.0331
     34 H11         7.4720   -1.8720   10.1100 H         1    UNL1     0.0697
     35 H12         8.2400   -0.8160    8.9560 H         1    UNL1     0.0697
     36 H13         4.7700   -2.2350    8.6630 H         1    UNL1     0.0697
     37 H14         5.4070   -1.4790    7.2200 H         1    UNL1     0.0697
     38 H15        10.1640    0.6020   11.2600 H         1    UNL1     0.0654
     39 H16         7.5960   -5.2240    8.2420 H         1    UNL1     0.0654
     40 H17         6.7160    2.0950    9.3810 H         1    UNL1     0.0654
     41 H18         5.4640   -2.5070    5.8520 H         1    UNL1     0.0654
     42 H19        11.3750    2.6150   10.6400 H         1    UNL1     0.0627
     43 H20         7.3830   -6.9160    6.5110 H         1    UNL1     0.0627
     44 H21         7.9250    4.1090    8.7610 H         1    UNL1     0.0627
     45 H22         5.2490   -4.1970    4.1190 H         1    UNL1     0.0627
@<TRIPOS>UNITY_ATOM_ATTR
5 1
charge 1
6 1
charge 1
@<TRIPOS>BOND
     1     1     8    1
     2     1    10    1
     3     2     9    1
     4     2    11    1
     5     3    22    1
     6     4    23    1
     7     5    22    2
     8     6    23    2
     9     7     8    1
    10     7     9    1
    11    10    12   ar
    12    10    14   ar
    13    11    13   ar
    14    11    15   ar
    15    12    18   ar
    16    13    19   ar
    17    14    20   ar
    18    15    21   ar
    19    16    18   ar
    20    16    20   ar
    21    16    22    1
    22    17    19   ar
    23    17    21   ar
    24    17    23    1
    25     3    24    1
    26     3    25    1
    27     4    26    1
    28     4    27    1
    29     5    28    1
    30     5    29    1
    31     6    30    1
    32     6    31    1
    33     7    32    1
    34     7    33    1
    35     8    34    1
    36     8    35    1
    37     9    36    1
    38     9    37    1
    39    12    38    1
    40    13    39    1
    41    14    40    1
    42    15    41    1
    43    18    42    1
    44    19    43    1
    45    20    44    1
    46    21    45    1
