#REMARK Cluster   6 of Poses:  2 Score: -7.52 kcal/mol
@<TRIPOS>MOLECULE
64949
 45 46 0 0 0
SMALL
GASTEIGER

@<TRIPOS>ATOM
      1 O1          6.8240   -2.7200    7.9480 O.3       1    UNL1    -0.4918
      2 O2          6.8190    0.4230   10.7580 O.3       1    UNL1    -0.4918
      3 N3          5.3500   -6.5750    3.0030 N.pl3     1    UNL1    -0.2497
      4 N4          9.3590    6.3250   11.2060 N.pl3     1    UNL1    -0.2497
      5 N5          6.7860   -7.9150    4.2680 N.2       1    UNL1    -0.2884
      6 N6         10.2550    5.5500    9.1910 N.2       1    UNL1    -0.2884
      7 C7          5.6730   -1.1310    9.3180 C.3       1    UNL1     0.0157
      8 C8          5.8050   -2.5940    8.9310 C.3       1    UNL1     0.0927
      9 C9          7.0100   -0.5230    9.7150 C.3       1    UNL1     0.0927
     10 C10         6.6620   -3.7080    7.0120 C.ar      1    UNL1     0.1205
     11 C11         7.4710    1.6220   10.6310 C.ar      1    UNL1     0.1205
     12 C12         5.9190   -3.4530    5.8650 C.ar      1    UNL1    -0.0191
     13 C13         7.2110    2.6450   11.5360 C.ar      1    UNL1    -0.0191
     14 C14         7.2420   -4.9540    7.2200 C.ar      1    UNL1    -0.0191
     15 C15         8.3860    1.8020    9.6000 C.ar      1    UNL1    -0.0191
     16 C16         6.3350   -5.7110    5.1130 C.ar      1    UNL1     0.0610
     17 C17         8.7950    4.0530   10.3770 C.ar      1    UNL1     0.0610
     18 C18         5.7560   -4.4590    4.9120 C.ar      1    UNL1    -0.0436
     19 C19         7.8750    3.8650   11.4080 C.ar      1    UNL1    -0.0436
     20 C20         7.0780   -5.9590    6.2670 C.ar      1    UNL1    -0.0436
     21 C21         9.0500    3.0220    9.4730 C.ar      1    UNL1    -0.0436
     22 C22         6.1650   -6.7590    4.1190 C.2       1    UNL1     0.2662
     23 C23         9.4880    5.3250   10.2440 C.2       1    UNL1     0.2662
     24 H1          4.7210   -5.8190    2.9730 H         1    UNL1     0.2883
     25 H2          5.4040   -7.2010    2.2450 H         1    UNL1     0.2883
     26 H3          9.0630    7.2270   10.9420 H         1    UNL1     0.2883
     27 H4          9.5640    6.1310   12.1490 H         1    UNL1     0.2883
     28 H5          6.6720   -8.6260    3.5970 H         1    UNL1     0.3009
     29 H6          7.3640   -8.0660    5.0520 H         1    UNL1     0.3009
     30 H7         10.7250    6.4100    9.0990 H         1    UNL1     0.3009
     31 H8         10.3560    4.8570    8.4990 H         1    UNL1     0.3009
     32 H9          4.9990   -1.0510   10.1450 H         1    UNL1     0.0331
     33 H10         5.3070   -0.5960    8.4670 H         1    UNL1     0.0331
     34 H11         6.0650   -3.1720    9.7940 H         1    UNL1     0.0697
     35 H12         4.8760   -2.9510    8.5390 H         1    UNL1     0.0697
     36 H13         7.6650   -1.2980   10.0540 H         1    UNL1     0.0697
     37 H14         7.4400   -0.0320    8.8670 H         1    UNL1     0.0697
     38 H15         5.4920   -2.5260    5.7190 H         1    UNL1     0.0654
     39 H16         6.5300    2.5020   12.2980 H         1    UNL1     0.0654
     40 H17         7.7920   -5.1340    8.0750 H         1    UNL1     0.0654
     41 H18         8.5730    1.0380    8.9330 H         1    UNL1     0.0654
     42 H19         5.2060   -4.2750    4.0580 H         1    UNL1     0.0627
     43 H20         7.6860    4.6280   12.0770 H         1    UNL1     0.0627
     44 H21         7.5070   -6.8860    6.4150 H         1    UNL1     0.0627
     45 H22         9.7310    3.1620    8.7100 H         1    UNL1     0.0627
@<TRIPOS>UNITY_ATOM_ATTR
5 1
charge 1
6 1
charge 1
@<TRIPOS>BOND
     1     1     8    1
     2     1    10    1
     3     2     9    1
     4     2    11    1
     5     3    22    1
     6     4    23    1
     7     5    22    2
     8     6    23    2
     9     7     8    1
    10     7     9    1
    11    10    12   ar
    12    10    14   ar
    13    11    13   ar
    14    11    15   ar
    15    12    18   ar
    16    13    19   ar
    17    14    20   ar
    18    15    21   ar
    19    16    18   ar
    20    16    20   ar
    21    16    22    1
    22    17    19   ar
    23    17    21   ar
    24    17    23    1
    25     3    24    1
    26     3    25    1
    27     4    26    1
    28     4    27    1
    29     5    28    1
    30     5    29    1
    31     6    30    1
    32     6    31    1
    33     7    32    1
    34     7    33    1
    35     8    34    1
    36     8    35    1
    37     9    36    1
    38     9    37    1
    39    12    38    1
    40    13    39    1
    41    14    40    1
    42    15    41    1
    43    18    42    1
    44    19    43    1
    45    20    44    1
    46    21    45    1
