#REMARK Cluster   6 of Poses:  1 Score: -8.56 kcal/mol
@<TRIPOS>MOLECULE
*****
 65 68 0 0 0
SMALL
GASTEIGER

@<TRIPOS>ATOM
      1 C1          5.5990   -3.8880    4.5820 C.ar      1    UNL1    -0.0449
      2 C2          5.5520   -2.6510    5.2350 C.ar      1    UNL1    -0.0334
      3 C3          5.9410   -2.5870    6.5840 C.ar      1    UNL1     0.0895
      4 C4          6.3320   -3.7510    7.2380 C.ar      1    UNL1     0.0673
      5 C5          6.3690   -5.0030    6.6270 C.ar      1    UNL1    -0.0215
      6 C6          6.0050   -5.0310    5.2760 C.ar      1    UNL1     0.0629
      7 C7          6.0780   -6.3190    4.5580 C.2       1    UNL1     0.2662
      8 N8          5.0090   -6.7950    3.9950 N.2       1    UNL1    -0.2884
      9 N9          7.3060   -6.9520    4.5300 N.pl3     1    UNL1    -0.2497
     10 N10         6.6410   -3.3440    8.5090 N.ar      1    UNL1    -0.3378
     11 C11         6.4520   -1.9850    8.5800 C.ar      1    UNL1     0.1428
     12 N12         6.0180   -1.5060    7.4300 N.ar      1    UNL1    -0.2276
     13 C13         6.6910   -1.2240    9.7950 C.ar      1    UNL1     0.0595
     14 C14         7.9900   -0.7900   10.0740 C.ar      1    UNL1    -0.0439
     15 C15         8.2640   -0.0650   11.2370 C.ar      1    UNL1    -0.0372
     16 C16         7.2240    0.1800   12.1480 C.ar      1    UNL1    -0.0467
     17 C17         5.8970   -0.2230   11.8900 C.ar      1    UNL1     0.0281
     18 C18         5.6550   -0.9140   10.6900 C.ar      1    UNL1     0.1353
     19 O19         4.3780   -1.3050   10.3770 O.3       1    UNL1    -0.5054
     20 C20         4.8230    0.1420   12.8420 C.ar      1    UNL1     0.0289
     21 C21         4.6500    1.4890   13.2050 C.ar      1    UNL1    -0.0240
     22 C22         3.6780    1.8690   14.1400 C.ar      1    UNL1     0.1058
     23 C23         2.8180    0.9310   14.6980 C.ar      1    UNL1    -0.0319
     24 C24         2.9590   -0.4080   14.3370 C.ar      1    UNL1    -0.0177
     25 C25         3.9620   -0.7940   13.4400 C.ar      1    UNL1     0.1248
     26 O26         4.0570   -2.1260   13.1390 O.3       1    UNL1    -0.5062
     27 S27         3.6360    3.5730   14.5970 S.O2      1    UNL1     0.0560
     28 O28         4.7040    3.7580   15.5620 O.2       1    UNL1    -0.1533
     29 O29         3.6000    4.3240   13.3590 O.2       1    UNL1    -0.1533
     30 N30         2.1430    3.7630   15.4030 N.3       1    UNL1    -0.2035
     31 C31         9.6560    0.4530   11.4970 C.3       1    UNL1     0.0491
     32 C32        10.3840   -0.2970   12.5990 C.2       1    UNL1     0.2178
     33 O33        10.1640   -0.1550   13.7990 O.2       1    UNL1    -0.2754
     34 N34        11.3140   -1.1840   12.0850 N.am      1    UNL1    -0.3067
     35 C35        12.7440   -0.9080   12.1150 C.3       1    UNL1     0.0676
     36 C36        13.5890   -2.1840   12.2340 C.3       1    UNL1     0.0105
     37 C37        13.3560   -2.9360   13.5250 C.2       1    UNL1     0.0439
     38 O38        12.5870   -2.6130   14.4180 O.co2     1    UNL1    -0.5497
     39 O39        14.1940   -4.0010   13.6050 O.co2     1    UNL1    -0.5497
     40 C40        13.0490   -0.1720   10.8240 C.2       1    UNL1     0.0623
     41 O41        13.0380    1.0470   10.7140 O.co2     1    UNL1    -0.5479
     42 O42        13.3770   -1.0070    9.8030 O.co2     1    UNL1    -0.5479
     43 H1          5.3330   -3.9560    3.5870 H         1    UNL1     0.0627
     44 H2          5.2380   -1.8040    4.7370 H         1    UNL1     0.0640
     45 H3          6.6480   -5.8550    7.1380 H         1    UNL1     0.0647
     46 H4          4.1610   -6.2970    4.0490 H         1    UNL1     0.3009
     47 H5          5.0470   -7.6530    3.5140 H         1    UNL1     0.3009
     48 H6          7.8440   -6.9480    3.7050 H         1    UNL1     0.2883
     49 H7          7.6440   -7.4080    5.3350 H         1    UNL1     0.2883
     50 H8          6.9450   -3.9240    9.2440 H         1    UNL1     0.1674
     51 H9          8.7540   -1.0080    9.4150 H         1    UNL1     0.0629
     52 H10         7.4360    0.6690   13.0310 H         1    UNL1     0.0628
     53 H11         3.7310   -0.6630   10.1600 H         1    UNL1     0.2922
     54 H12         5.2490    2.2120   12.7750 H         1    UNL1     0.0644
     55 H13         2.0880    1.2200   15.3670 H         1    UNL1     0.0638
     56 H14         2.3220   -1.1170   14.7330 H         1    UNL1     0.0655
     57 H15         3.6590   -2.4600   12.3590 H         1    UNL1     0.2922
     58 H16         1.3810    3.6870   14.7280 H         1    UNL1     0.1442
     59 H17         2.1120    4.6790   15.8500 H         1    UNL1     0.1442
     60 H18         9.5870    1.4830   11.7770 H         1    UNL1     0.0407
     61 H19        10.2170    0.3140   10.5970 H         1    UNL1     0.0407
     62 H20        10.9990   -2.0280   11.6870 H         1    UNL1     0.1493
     63 H21        12.9950   -0.3260   12.9770 H         1    UNL1     0.0564
     64 H22        14.6220   -1.9140   12.1790 H         1    UNL1     0.0346
     65 H23        13.2990   -2.8320   11.4330 H         1    UNL1     0.0346
@<TRIPOS>UNITY_ATOM_ATTR
8 1
charge 1
39 1
charge -1
42 1
charge -1
@<TRIPOS>BOND
     1     1     2   ar
     2     1     6   ar
     3     2     3   ar
     4     3     4   ar
     5     3    12   ar
     6     4     5   ar
     7     4    10   ar
     8     5     6   ar
     9     6     7    1
    10     7     8    2
    11     7     9    1
    12    10    11   ar
    13    11    12   ar
    14    11    13    1
    15    13    14   ar
    16    13    18   ar
    17    14    15   ar
    18    15    16   ar
    19    15    31    1
    20    16    17   ar
    21    17    18   ar
    22    17    20    1
    23    18    19    1
    24    20    21   ar
    25    20    25   ar
    26    21    22   ar
    27    22    23   ar
    28    22    27    1
    29    23    24   ar
    30    24    25   ar
    31    25    26    1
    32    27    28    2
    33    27    29    2
    34    27    30    1
    35    31    32    1
    36    32    33    2
    37    32    34   am
    38    34    35    1
    39    35    36    1
    40    35    40    1
    41    36    37    1
    42    37    38   ar
    43    37    39   ar
    44    40    41   ar
    45    40    42   ar
    46     1    43    1
    47     2    44    1
    48     5    45    1
    49     8    46    1
    50     8    47    1
    51     9    48    1
    52     9    49    1
    53    10    50    1
    54    14    51    1
    55    16    52    1
    56    19    53    1
    57    21    54    1
    58    23    55    1
    59    24    56    1
    60    26    57    1
    61    30    58    1
    62    30    59    1
    63    31    60    1
    64    31    61    1
    65    34    62    1
    66    35    63    1
    67    36    64    1
    68    36    65    1
