#REMARK Cluster   8 of Poses:  2 Score: -7.33 kcal/mol
@<TRIPOS>MOLECULE
64949
 45 46 0 0 0
SMALL
GASTEIGER

@<TRIPOS>ATOM
      1 O1          7.4250   -2.1300   11.2970 O.3       1    UNL1    -0.4918
      2 O2          5.5230   -2.5040    7.9260 O.3       1    UNL1    -0.4918
      3 N3          8.6540    3.9030    9.4050 N.pl3     1    UNL1    -0.2497
      4 N4          7.1480   -7.5310    4.2420 N.pl3     1    UNL1    -0.2497
      5 N5          6.4020    4.0220   10.0160 N.2       1    UNL1    -0.2884
      6 N6          5.4330   -6.5390    3.0020 N.2       1    UNL1    -0.2884
      7 C7          5.2580   -2.3900   10.3170 C.3       1    UNL1     0.0157
      8 C8          6.6430   -2.9930   10.4830 C.3       1    UNL1     0.0927
      9 C9          4.6220   -2.7780    8.9910 C.3       1    UNL1     0.0927
     10 C10         7.4430   -0.8040   10.9530 C.ar      1    UNL1     0.1205
     11 C11         5.6870   -3.4880    6.9860 C.ar      1    UNL1     0.1205
     12 C12         8.3620   -0.3490   10.0140 C.ar      1    UNL1    -0.0191
     13 C13         6.6940   -4.4310    7.1470 C.ar      1    UNL1    -0.0191
     14 C14         6.5420    0.0730   11.5460 C.ar      1    UNL1    -0.0191
     15 C15         4.8430   -3.5320    5.8820 C.ar      1    UNL1    -0.0191
     16 C16         7.4790    1.8870   10.2540 C.ar      1    UNL1     0.0610
     17 C17         6.0180   -5.4850    5.0810 C.ar      1    UNL1     0.0610
     18 C18         8.3800    1.0010    9.6640 C.ar      1    UNL1    -0.0436
     19 C19         6.8610   -5.4340    6.1910 C.ar      1    UNL1    -0.0436
     20 C20         6.5600    1.4230   11.1950 C.ar      1    UNL1    -0.0436
     21 C21         5.0090   -4.5350    4.9270 C.ar      1    UNL1    -0.0436
     22 C22         7.4970    3.2940    9.8880 C.2       1    UNL1     0.2662
     23 C23         6.1910   -6.5300    4.0840 C.2       1    UNL1     0.2662
     24 H1          8.5900    4.6190    8.7320 H         1    UNL1     0.2883
     25 H2          9.5360    3.6170    9.7360 H         1    UNL1     0.2883
     26 H3          7.6100   -7.6390    5.1040 H         1    UNL1     0.2883
     27 H4          7.3630   -8.1290    3.4900 H         1    UNL1     0.2883
     28 H5          6.4120    4.9750    9.7690 H         1    UNL1     0.3009
     29 H6          5.5750    3.6110   10.3590 H         1    UNL1     0.3009
     30 H7          5.5490   -7.2460    2.3260 H         1    UNL1     0.3009
     31 H8          4.7530   -5.8400    2.8710 H         1    UNL1     0.3009
     32 H9          5.3370   -1.3240   10.3620 H         1    UNL1     0.0331
     33 H10         4.6370   -2.7650   11.1030 H         1    UNL1     0.0331
     34 H11         6.5630   -3.9530   10.9490 H         1    UNL1     0.0697
     35 H12         7.1060   -3.1070    9.5250 H         1    UNL1     0.0697
     36 H13         4.3910   -3.8230    9.0000 H         1    UNL1     0.0697
     37 H14         3.7260   -2.2110    8.8500 H         1    UNL1     0.0697
     38 H15         9.0280   -1.0070    9.5790 H         1    UNL1     0.0654
     39 H16         7.3160   -4.3910    7.9690 H         1    UNL1     0.0654
     40 H17         5.8630   -0.2730   12.2420 H         1    UNL1     0.0654
     41 H18         4.0970   -2.8280    5.7710 H         1    UNL1     0.0654
     42 H19         9.0600    1.3440    8.9670 H         1    UNL1     0.0627
     43 H20         7.6070   -6.1370    6.3050 H         1    UNL1     0.0627
     44 H21         5.8930    2.0780   11.6320 H         1    UNL1     0.0627
     45 H22         4.3850   -4.5730    4.1050 H         1    UNL1     0.0627
@<TRIPOS>UNITY_ATOM_ATTR
5 1
charge 1
6 1
charge 1
@<TRIPOS>BOND
     1     1     8    1
     2     1    10    1
     3     2     9    1
     4     2    11    1
     5     3    22    1
     6     4    23    1
     7     5    22    2
     8     6    23    2
     9     7     8    1
    10     7     9    1
    11    10    12   ar
    12    10    14   ar
    13    11    13   ar
    14    11    15   ar
    15    12    18   ar
    16    13    19   ar
    17    14    20   ar
    18    15    21   ar
    19    16    18   ar
    20    16    20   ar
    21    16    22    1
    22    17    19   ar
    23    17    21   ar
    24    17    23    1
    25     3    24    1
    26     3    25    1
    27     4    26    1
    28     4    27    1
    29     5    28    1
    30     5    29    1
    31     6    30    1
    32     6    31    1
    33     7    32    1
    34     7    33    1
    35     8    34    1
    36     8    35    1
    37     9    36    1
    38     9    37    1
    39    12    38    1
    40    13    39    1
    41    14    40    1
    42    15    41    1
    43    18    42    1
    44    19    43    1
    45    20    44    1
    46    21    45    1
