#REMARK Cluster   5 of Poses:  1 Score: -7.42 kcal/mol
@<TRIPOS>MOLECULE
2536
 52 53 0 0 0
SMALL
GASTEIGER

@<TRIPOS>ATOM
      1 O1          6.7100   -7.4100   11.8480 O.3       1    UNL1    -0.4550
      2 O2          4.7730   -1.5640    9.5740 O.3       1    UNL1    -0.4223
      3 O3          4.7530   -8.4540   11.2150 O.2       1    UNL1    -0.2505
      4 O4          9.3630   -9.0960   11.0050 O.2       1    UNL1    -0.2719
      5 O5          6.4850   -0.3960    8.5070 O.2       1    UNL1    -0.2445
      6 N6          9.6300   -6.8150   11.3530 N.am      1    UNL1    -0.3048
      7 N7          7.1300   -6.3630    6.2170 N.pl3     1    UNL1    -0.2464
      8 N8          5.9720   -5.7250    4.2010 N.pl3     1    UNL1    -0.2915
      9 N9          6.9950   -7.7600    4.3500 N.pl3     1    UNL1    -0.2915
     10 C10         4.7100   -5.1100   11.7300 C.ar      1    UNL1    -0.0365
     11 C11         4.6870   -6.3970   12.5140 C.3       1    UNL1     0.0701
     12 C12         5.6150   -4.1040   12.0680 C.ar      1    UNL1    -0.0546
     13 C13         3.8260   -4.9240   10.6670 C.ar      1    UNL1    -0.0546
     14 C14         4.7530   -2.7270   10.2810 C.ar      1    UNL1     0.1320
     15 C15         5.6370   -2.9130   11.3430 C.ar      1    UNL1    -0.0189
     16 C16         3.8470   -3.7330    9.9430 C.ar      1    UNL1    -0.0189
     17 C17         5.3430   -7.5440   11.7820 C.2       1    UNL1     0.3119
     18 C18         7.4290   -7.7650   10.6870 C.3       1    UNL1     0.1682
     19 C19         6.1990   -2.7210    8.0640 C.ar      1    UNL1     0.0596
     20 C20         8.8920   -7.9550   11.0310 C.2       1    UNL1     0.2528
     21 C21         5.8690   -1.4300    8.7180 C.2       1    UNL1     0.3444
     22 C22         5.5330   -3.1030    6.8990 C.ar      1    UNL1    -0.0445
     23 C23         7.1760   -3.5520    8.6130 C.ar      1    UNL1    -0.0445
     24 C24         6.8190   -5.1470    6.8340 C.ar      1    UNL1     0.0999
     25 C25         5.8430   -4.3160    6.2840 C.ar      1    UNL1    -0.0224
     26 C26         7.4850   -4.7650    7.9980 C.ar      1    UNL1    -0.0224
     27 C27         9.1110   -5.4500   11.3800 C.3       1    UNL1     0.0029
     28 C28        11.0440   -6.9470   11.6820 C.3       1    UNL1     0.0029
     29 C29         6.7110   -6.5780    4.9920 C.cat     1    UNL1     0.3458
     30 H1          7.6550   -7.0460    6.6930 H         1    UNL1     0.2647
     31 H2          6.4160   -5.2000    3.4960 H         1    UNL1     0.2546
     32 H3          5.0010   -5.6410    4.3400 H         1    UNL1     0.2546
     33 H4          6.7900   -7.8610    3.3920 H         1    UNL1     0.2546
     34 H5          7.4030   -8.5050    4.8470 H         1    UNL1     0.2546
     35 H6          3.6690   -6.6570   12.7130 H         1    UNL1     0.0426
     36 H7          5.2410   -6.2330   13.4150 H         1    UNL1     0.0426
     37 H8          6.2700   -4.2410   12.8540 H         1    UNL1     0.0622
     38 H9          3.1560   -5.6680   10.4170 H         1    UNL1     0.0622
     39 H10         6.3070   -2.1680   11.5930 H         1    UNL1     0.0654
     40 H11         3.1930   -3.5950    9.1570 H         1    UNL1     0.0654
     41 H12         7.3330   -6.9870    9.9580 H         1    UNL1     0.0796
     42 H13         7.0360   -8.6780   10.2920 H         1    UNL1     0.0796
     43 H14         4.8100   -2.4880    6.4930 H         1    UNL1     0.0627
     44 H15         7.6690   -3.2700    9.4750 H         1    UNL1     0.0627
     45 H16         5.3500   -4.5990    5.4230 H         1    UNL1     0.0652
     46 H17         8.2080   -5.3800    8.4050 H         1    UNL1     0.0652
     47 H18         8.0720   -5.4580   11.1260 H         1    UNL1     0.0428
     48 H19         9.6470   -4.8510   10.6730 H         1    UNL1     0.0428
     49 H20         9.2360   -5.0410   12.3600 H         1    UNL1     0.0428
     50 H21        11.3260   -7.9780   11.6350 H         1    UNL1     0.0428
     51 H22        11.2160   -6.5750   12.6710 H         1    UNL1     0.0428
     52 H23        11.6270   -6.3860   10.9830 H         1    UNL1     0.0428
@<TRIPOS>UNITY_ATOM_ATTR
7 1
charge 1
@<TRIPOS>BOND
     1     1    17    1
     2     1    18    1
     3     2    14    1
     4     2    21    1
     5     3    17    2
     6     4    20    2
     7     5    21    2
     8     6    20   am
     9     6    27    1
    10     6    28    1
    11     7    24    1
    12     7    29    2
    13     8    29    1
    14     9    29    1
    15    10    11    1
    16    10    12   ar
    17    10    13   ar
    18    11    17    1
    19    12    15   ar
    20    13    16   ar
    21    14    15   ar
    22    14    16   ar
    23    18    20    1
    24    19    21    1
    25    19    22   ar
    26    19    23   ar
    27    22    25   ar
    28    23    26   ar
    29    24    25   ar
    30    24    26   ar
    31     7    30    1
    32     8    31    1
    33     8    32    1
    34     9    33    1
    35     9    34    1
    36    11    35    1
    37    11    36    1
    38    12    37    1
    39    13    38    1
    40    15    39    1
    41    16    40    1
    42    18    41    1
    43    18    42    1
    44    22    43    1
    45    23    44    1
    46    25    45    1
    47    26    46    1
    48    27    47    1
    49    27    48    1
    50    27    49    1
    51    28    50    1
    52    28    51    1
    53    28    52    1
