#REMARK Cluster   3 of Poses:  1 Score: -8.91 kcal/mol
@<TRIPOS>MOLECULE
*****
 65 68 0 0 0
SMALL
GASTEIGER

@<TRIPOS>ATOM
      1 C1          5.3800   -5.2340    4.0630 C.ar      1    UNL1    -0.0449
      2 C2          4.8150   -4.1270    4.7060 C.ar      1    UNL1    -0.0334
      3 C3          5.2540   -3.8050    6.0020 C.ar      1    UNL1     0.0895
      4 C4          6.2100   -4.6060    6.6180 C.ar      1    UNL1     0.0673
      5 C5          6.7780   -5.7280    6.0180 C.ar      1    UNL1    -0.0215
      6 C6          6.3440   -6.0070    4.7170 C.ar      1    UNL1     0.0629
      7 C7          6.9500   -7.1500    4.0080 C.2       1    UNL1     0.2662
      8 N8          6.3530   -8.3030    4.0330 N.2       1    UNL1    -0.2884
      9 N9          8.1420   -6.9190    3.3470 N.pl3     1    UNL1    -0.2497
     10 N10         6.4090   -4.0230    7.8420 N.ar      1    UNL1    -0.3378
     11 C11         5.6060   -2.9110    7.9220 C.ar      1    UNL1     0.1428
     12 N12         4.8890   -2.7650    6.8240 N.ar      1    UNL1    -0.2276
     13 C13         5.5700   -2.0540    9.0950 C.ar      1    UNL1     0.0595
     14 C14         5.0710   -2.5730   10.2930 C.ar      1    UNL1    -0.0439
     15 C15         5.0100   -1.7790   11.4420 C.ar      1    UNL1    -0.0372
     16 C16         5.4110   -0.4350   11.3630 C.ar      1    UNL1    -0.0467
     17 C17         5.9390    0.1170   10.1780 C.ar      1    UNL1     0.0281
     18 C18         6.0230   -0.7260    9.0560 C.ar      1    UNL1     0.1353
     19 O19         6.5540   -0.2480    7.8850 O.3       1    UNL1    -0.5054
     20 C20         6.4300    1.5130   10.1760 C.ar      1    UNL1     0.0289
     21 C21         7.8130    1.7600   10.0930 C.ar      1    UNL1    -0.0240
     22 C22         8.3200    3.0640   10.1390 C.ar      1    UNL1     0.1058
     23 C23         7.4690    4.1600   10.2130 C.ar      1    UNL1    -0.0319
     24 C24         6.0950    3.9410   10.2760 C.ar      1    UNL1    -0.0177
     25 C25         5.5900    2.6350   10.2800 C.ar      1    UNL1     0.1248
     26 O26         4.2310    2.4870   10.3590 O.3       1    UNL1    -0.5062
     27 S27        10.0770    3.2350   10.1420 S.O2      1    UNL1     0.0560
     28 O28        10.5000    3.0230   11.5130 O.2       1    UNL1    -0.1533
     29 O29        10.5670    2.4000    9.0630 O.2       1    UNL1    -0.1533
     30 N30        10.3480    4.8720    9.7410 N.3       1    UNL1    -0.2035
     31 C31         4.5300   -2.3660   12.7450 C.3       1    UNL1     0.0491
     32 C32         5.2420   -3.6530   13.1260 C.2       1    UNL1     0.2178
     33 O33         6.4470   -3.7430   13.3420 O.2       1    UNL1    -0.2754
     34 N34         4.3590   -4.7150   13.2250 N.am      1    UNL1    -0.3067
     35 C35         4.2670   -5.7430   12.1970 C.3       1    UNL1     0.0676
     36 C36         5.3040   -6.8590   12.3860 C.3       1    UNL1     0.0105
     37 C37         5.5840   -7.1750   13.8370 C.2       1    UNL1     0.0439
     38 O38         4.7710   -7.5760   14.6570 O.co2     1    UNL1    -0.5497
     39 O39         6.8710   -6.8680   14.1450 O.co2     1    UNL1    -0.5497
     40 C40         2.8560   -6.2910   12.2860 C.2       1    UNL1     0.0623
     41 O41         2.0930   -6.0660   13.2160 O.co2     1    UNL1    -0.5479
     42 O42         2.5060   -7.0320   11.2010 O.co2     1    UNL1    -0.5479
     43 H1          5.0850   -5.4800    3.1060 H         1    UNL1     0.0627
     44 H2          4.0910   -3.5600    4.2390 H         1    UNL1     0.0640
     45 H3          7.4750   -6.3150    6.5020 H         1    UNL1     0.0647
     46 H4          5.5050   -8.4080    4.5220 H         1    UNL1     0.3009
     47 H5          6.7490   -9.0730    3.5640 H         1    UNL1     0.3009
     48 H6          8.7960   -6.2840    3.7190 H         1    UNL1     0.2883
     49 H7          8.3360   -7.3880    2.5030 H         1    UNL1     0.2883
     50 H8          7.0200   -4.3460    8.5430 H         1    UNL1     0.1674
     51 H9          4.7450   -3.5520   10.3300 H         1    UNL1     0.0629
     52 H10         5.3160    0.1650   12.1970 H         1    UNL1     0.0628
     53 H11         5.9880   -0.0030    7.1790 H         1    UNL1     0.2922
     54 H12         8.4640    0.9650    9.9970 H         1    UNL1     0.0644
     55 H13         7.8490    5.1200   10.2210 H         1    UNL1     0.0638
     56 H14         5.4470    4.7430   10.3210 H         1    UNL1     0.0655
     57 H15         3.8040    1.8090    9.8740 H         1    UNL1     0.2922
     58 H16        10.3680    5.4320   10.5930 H         1    UNL1     0.1442
     59 H17         9.5970    5.2020    9.1350 H         1    UNL1     0.1442
     60 H18         3.4830   -2.5700   12.6600 H         1    UNL1     0.0407
     61 H19         4.7430   -1.6500   13.5110 H         1    UNL1     0.0407
     62 H20         3.7740   -4.7770   14.0150 H         1    UNL1     0.1493
     63 H21         4.4760   -5.3280   11.2340 H         1    UNL1     0.0564
     64 H22         6.2180   -6.5550   11.9210 H         1    UNL1     0.0346
     65 H23         4.9010   -7.7450   11.9400 H         1    UNL1     0.0346
@<TRIPOS>UNITY_ATOM_ATTR
8 1
charge 1
39 1
charge -1
42 1
charge -1
@<TRIPOS>BOND
     1     1     2   ar
     2     1     6   ar
     3     2     3   ar
     4     3     4   ar
     5     3    12   ar
     6     4     5   ar
     7     4    10   ar
     8     5     6   ar
     9     6     7    1
    10     7     8    2
    11     7     9    1
    12    10    11   ar
    13    11    12   ar
    14    11    13    1
    15    13    14   ar
    16    13    18   ar
    17    14    15   ar
    18    15    16   ar
    19    15    31    1
    20    16    17   ar
    21    17    18   ar
    22    17    20    1
    23    18    19    1
    24    20    21   ar
    25    20    25   ar
    26    21    22   ar
    27    22    23   ar
    28    22    27    1
    29    23    24   ar
    30    24    25   ar
    31    25    26    1
    32    27    28    2
    33    27    29    2
    34    27    30    1
    35    31    32    1
    36    32    33    2
    37    32    34   am
    38    34    35    1
    39    35    36    1
    40    35    40    1
    41    36    37    1
    42    37    38   ar
    43    37    39   ar
    44    40    41   ar
    45    40    42   ar
    46     1    43    1
    47     2    44    1
    48     5    45    1
    49     8    46    1
    50     8    47    1
    51     9    48    1
    52     9    49    1
    53    10    50    1
    54    14    51    1
    55    16    52    1
    56    19    53    1
    57    21    54    1
    58    23    55    1
    59    24    56    1
    60    26    57    1
    61    30    58    1
    62    30    59    1
    63    31    60    1
    64    31    61    1
    65    34    62    1
    66    35    63    1
    67    36    64    1
    68    36    65    1
