#REMARK Cluster  13 of Poses:  1 Score: -8.02 kcal/mol
@<TRIPOS>MOLECULE
*****
 65 68 0 0 0
SMALL
GASTEIGER

@<TRIPOS>ATOM
      1 C1          5.6530   -4.0250    4.3500 C.ar      1    UNL1    -0.0449
      2 C2          5.5900   -2.9620    5.2580 C.ar      1    UNL1    -0.0334
      3 C3          5.8880   -3.2120    6.6090 C.ar      1    UNL1     0.0895
      4 C4          6.2060   -4.5060    7.0100 C.ar      1    UNL1     0.0673
      5 C5          6.2560   -5.5920    6.1390 C.ar      1    UNL1    -0.0215
      6 C6          5.9840   -5.3070    4.7950 C.ar      1    UNL1     0.0629
      7 C7          6.0770   -6.4070    3.8150 C.2       1    UNL1     0.2662
      8 N8          5.2230   -6.4610    2.8380 N.2       1    UNL1    -0.2884
      9 N9          7.0880   -7.3310    4.0020 N.pl3     1    UNL1    -0.2497
     10 N10         6.4370   -4.4010    8.3560 N.ar      1    UNL1    -0.3378
     11 C11         6.2750   -3.0850    8.7170 C.ar      1    UNL1     0.1428
     12 N12         5.9310   -2.3480    7.6770 N.ar      1    UNL1    -0.2276
     13 C13         6.4480   -2.6200   10.0830 C.ar      1    UNL1     0.0595
     14 C14         7.2350   -3.3760   10.9560 C.ar      1    UNL1    -0.0439
     15 C15         7.4180   -2.9700   12.2810 C.ar      1    UNL1    -0.0372
     16 C16         6.7590   -1.8160   12.7370 C.ar      1    UNL1    -0.0467
     17 C17         5.9740   -1.0170   11.8790 C.ar      1    UNL1     0.0281
     18 C18         5.8490   -1.4380   10.5430 C.ar      1    UNL1     0.1353
     19 O19         5.1200   -0.6830    9.6600 O.3       1    UNL1    -0.5054
     20 C20         5.3770    0.2370   12.3900 C.ar      1    UNL1     0.0289
     21 C21         5.6740    1.4540   11.7520 C.ar      1    UNL1    -0.0240
     22 C22         5.1690    2.6680   12.2350 C.ar      1    UNL1     0.1058
     23 C23         4.3130    2.7010   13.3280 C.ar      1    UNL1    -0.0319
     24 C24         3.9890    1.5050   13.9650 C.ar      1    UNL1    -0.0177
     25 C25         4.5330    0.2970   13.5120 C.ar      1    UNL1     0.1248
     26 O26         4.1870   -0.8410   14.1900 O.3       1    UNL1    -0.5062
     27 S27         5.7070    4.1360   11.4160 S.O2      1    UNL1     0.0560
     28 O28         4.5160    4.9370   11.2010 O.2       1    UNL1    -0.1533
     29 O29         6.8280    4.6410   12.1830 O.2       1    UNL1    -0.1533
     30 N30         6.2740    3.5970    9.8990 N.3       1    UNL1    -0.2035
     31 C31         8.3190   -3.7570   13.1980 C.3       1    UNL1     0.0491
     32 C32         9.7320   -3.9190   12.6630 C.2       1    UNL1     0.2178
     33 O33        10.0100   -4.4140   11.5750 O.2       1    UNL1    -0.2754
     34 N34        10.6730   -3.4160   13.5450 N.am      1    UNL1    -0.3067
     35 C35        11.5000   -4.2840   14.3720 C.3       1    UNL1     0.0676
     36 C36        12.7380   -3.5670   14.9270 C.3       1    UNL1     0.0105
     37 C37        13.8910   -4.5020   15.2150 C.2       1    UNL1     0.0439
     38 O38        13.8020   -5.6770   15.5400 O.co2     1    UNL1    -0.5497
     39 O39        15.0690   -3.8290   15.1460 O.co2     1    UNL1    -0.5497
     40 C40        10.6000   -4.7640   15.4950 C.2       1    UNL1     0.0623
     41 O41        10.4090   -5.9440   15.7600 O.co2     1    UNL1    -0.5479
     42 O42        10.0530   -3.7450   16.2080 O.co2     1    UNL1    -0.5479
     43 H1          5.4540   -3.8620    3.3510 H         1    UNL1     0.0627
     44 H2          5.3300   -2.0140    4.9420 H         1    UNL1     0.0640
     45 H3          6.4800   -6.5460    6.4630 H         1    UNL1     0.0647
     46 H4          4.5230   -5.7730    2.7570 H         1    UNL1     0.3009
     47 H5          5.2750   -7.1900    2.1790 H         1    UNL1     0.3009
     48 H6          7.2150   -7.7490    4.8840 H         1    UNL1     0.2883
     49 H7          7.6800   -7.5700    3.2530 H         1    UNL1     0.2883
     50 H8          6.6770   -5.1400    8.9600 H         1    UNL1     0.1674
     51 H9          7.6850   -4.2420   10.6200 H         1    UNL1     0.0629
     52 H10         6.8510   -1.5460   13.7290 H         1    UNL1     0.0628
     53 H11         4.1980   -0.5740    9.7860 H         1    UNL1     0.2922
     54 H12         6.2750    1.4530   10.9130 H         1    UNL1     0.0644
     55 H13         3.9240    3.5970   13.6630 H         1    UNL1     0.0638
     56 H14         3.3460    1.5090   14.7720 H         1    UNL1     0.0655
     57 H15         3.5720   -0.7970   14.8960 H         1    UNL1     0.2922
     58 H16         6.4870    4.4020    9.3100 H         1    UNL1     0.1442
     59 H17         5.5560    3.0280    9.4500 H         1    UNL1     0.1442
     60 H18         7.8960   -4.7300   13.3360 H         1    UNL1     0.0407
     61 H19         8.3900   -3.2110   14.1150 H         1    UNL1     0.0407
     62 H20        10.7870   -2.4400   13.6150 H         1    UNL1     0.1493
     63 H21        11.8850   -5.0970   13.7920 H         1    UNL1     0.0564
     64 H22        12.4650   -3.0730   15.8360 H         1    UNL1     0.0346
     65 H23        13.0670   -2.8780   14.1780 H         1    UNL1     0.0346
@<TRIPOS>UNITY_ATOM_ATTR
8 1
charge 1
39 1
charge -1
42 1
charge -1
@<TRIPOS>BOND
     1     1     2   ar
     2     1     6   ar
     3     2     3   ar
     4     3     4   ar
     5     3    12   ar
     6     4     5   ar
     7     4    10   ar
     8     5     6   ar
     9     6     7    1
    10     7     8    2
    11     7     9    1
    12    10    11   ar
    13    11    12   ar
    14    11    13    1
    15    13    14   ar
    16    13    18   ar
    17    14    15   ar
    18    15    16   ar
    19    15    31    1
    20    16    17   ar
    21    17    18   ar
    22    17    20    1
    23    18    19    1
    24    20    21   ar
    25    20    25   ar
    26    21    22   ar
    27    22    23   ar
    28    22    27    1
    29    23    24   ar
    30    24    25   ar
    31    25    26    1
    32    27    28    2
    33    27    29    2
    34    27    30    1
    35    31    32    1
    36    32    33    2
    37    32    34   am
    38    34    35    1
    39    35    36    1
    40    35    40    1
    41    36    37    1
    42    37    38   ar
    43    37    39   ar
    44    40    41   ar
    45    40    42   ar
    46     1    43    1
    47     2    44    1
    48     5    45    1
    49     8    46    1
    50     8    47    1
    51     9    48    1
    52     9    49    1
    53    10    50    1
    54    14    51    1
    55    16    52    1
    56    19    53    1
    57    21    54    1
    58    23    55    1
    59    24    56    1
    60    26    57    1
    61    30    58    1
    62    30    59    1
    63    31    60    1
    64    31    61    1
    65    34    62    1
    66    35    63    1
    67    36    64    1
    68    36    65    1
