#REMARK Cluster   8 of Poses:  1 Score: -7.18 kcal/mol
@<TRIPOS>MOLECULE
2536
 52 53 0 0 0
SMALL
GASTEIGER

@<TRIPOS>ATOM
      1 O1          3.3550   -4.6850   16.9340 O.3       1    UNL1    -0.4550
      2 O2          6.4550   -2.6210   10.2990 O.3       1    UNL1    -0.4223
      3 O3          5.5230   -4.4090   16.1930 O.2       1    UNL1    -0.2505
      4 O4          0.9960   -3.1510   17.0850 O.2       1    UNL1    -0.2719
      5 O5          4.8320   -1.3140    9.2550 O.2       1    UNL1    -0.2445
      6 N6          0.7600   -4.1180   19.1830 N.am      1    UNL1    -0.3048
      7 N7          6.5960   -5.4210    4.6420 N.pl3     1    UNL1    -0.2464
      8 N8          4.2390   -5.5560    4.1540 N.pl3     1    UNL1    -0.2915
      9 N9          5.7580   -6.5990    2.8080 N.pl3     1    UNL1    -0.2915
     10 C10         4.4450   -2.9730   13.9130 C.ar      1    UNL1    -0.0365
     11 C11         3.7140   -3.1000   15.2250 C.3       1    UNL1     0.0701
     12 C12         4.8560   -1.7180   13.4630 C.ar      1    UNL1    -0.0546
     13 C13         4.7090   -4.1090   13.1480 C.ar      1    UNL1    -0.0546
     14 C14         5.7960   -2.7360   11.4840 C.ar      1    UNL1     0.1320
     15 C15         5.5310   -1.6000   12.2480 C.ar      1    UNL1    -0.0189
     16 C16         5.3850   -3.9910   11.9340 C.ar      1    UNL1    -0.0189
     17 C17         4.3340   -4.1220   16.1480 C.2       1    UNL1     0.3119
     18 C18         2.9860   -3.9580   18.0860 C.3       1    UNL1     0.1682
     19 C19         5.8980   -3.0580    8.0290 C.ar      1    UNL1     0.0596
     20 C20         1.4940   -3.7030   18.0710 C.2       1    UNL1     0.2528
     21 C21         5.6500   -2.2200    9.2300 C.2       1    UNL1     0.3444
     22 C22         6.1500   -4.4230    8.1700 C.ar      1    UNL1    -0.0445
     23 C23         5.8790   -2.4800    6.7590 C.ar      1    UNL1    -0.0445
     24 C24         6.3630   -4.6320    5.7730 C.ar      1    UNL1     0.0999
     25 C25         6.3820   -5.2090    7.0420 C.ar      1    UNL1    -0.0224
     26 C26         6.1110   -3.2670    5.6310 C.ar      1    UNL1    -0.0224
     27 C27         1.3090   -4.7850   20.3600 C.3       1    UNL1     0.0029
     28 C28        -0.6820   -3.9010   19.2100 C.3       1    UNL1     0.0029
     29 C29         5.5720   -5.8220    3.9270 C.cat     1    UNL1     0.3458
     30 H1          7.5140   -5.6710    4.3870 H         1    UNL1     0.2647
     31 H2          3.9340   -5.3080    5.0570 H         1    UNL1     0.2546
     32 H3          3.5930   -5.6140    3.4140 H         1    UNL1     0.2546
     33 H4          5.8260   -6.1770    1.9210 H         1    UNL1     0.2546
     34 H5          5.8230   -7.5780    2.8940 H         1    UNL1     0.2546
     35 H6          2.7030   -3.3880   15.0260 H         1    UNL1     0.0426
     36 H7          3.7700   -2.1500   15.7160 H         1    UNL1     0.0426
     37 H8          4.6600   -0.8770   14.0280 H         1    UNL1     0.0622
     38 H9          4.4050   -5.0370   13.4810 H         1    UNL1     0.0622
     39 H10         5.8360   -0.6720   11.9150 H         1    UNL1     0.0654
     40 H11         5.5800   -4.8320   11.3680 H         1    UNL1     0.0654
     41 H12         3.5070   -3.0230   18.0990 H         1    UNL1     0.0796
     42 H13         3.2410   -4.5230   18.9580 H         1    UNL1     0.0796
     43 H14         6.1640   -4.8500    9.1100 H         1    UNL1     0.0627
     44 H15         5.6920   -1.4710    6.6550 H         1    UNL1     0.0627
     45 H16         6.5690   -6.2190    7.1470 H         1    UNL1     0.0652
     46 H17         6.0970   -2.8400    4.6920 H         1    UNL1     0.0652
     47 H18         2.3670   -4.8970   20.2450 H         1    UNL1     0.0428
     48 H19         0.8580   -5.7500   20.4660 H         1    UNL1     0.0428
     49 H20         1.1050   -4.1980   21.2310 H         1    UNL1     0.0428
     50 H21        -0.9860   -3.4090   18.3100 H         1    UNL1     0.0428
     51 H22        -0.9350   -3.2920   20.0530 H         1    UNL1     0.0428
     52 H23        -1.1820   -4.8440   19.2880 H         1    UNL1     0.0428
@<TRIPOS>UNITY_ATOM_ATTR
7 1
charge 1
@<TRIPOS>BOND
     1     1    17    1
     2     1    18    1
     3     2    14    1
     4     2    21    1
     5     3    17    2
     6     4    20    2
     7     5    21    2
     8     6    20   am
     9     6    27    1
    10     6    28    1
    11     7    24    1
    12     7    29    2
    13     8    29    1
    14     9    29    1
    15    10    11    1
    16    10    12   ar
    17    10    13   ar
    18    11    17    1
    19    12    15   ar
    20    13    16   ar
    21    14    15   ar
    22    14    16   ar
    23    18    20    1
    24    19    21    1
    25    19    22   ar
    26    19    23   ar
    27    22    25   ar
    28    23    26   ar
    29    24    25   ar
    30    24    26   ar
    31     7    30    1
    32     8    31    1
    33     8    32    1
    34     9    33    1
    35     9    34    1
    36    11    35    1
    37    11    36    1
    38    12    37    1
    39    13    38    1
    40    15    39    1
    41    16    40    1
    42    18    41    1
    43    18    42    1
    44    22    43    1
    45    23    44    1
    46    25    45    1
    47    26    46    1
    48    27    47    1
    49    27    48    1
    50    27    49    1
    51    28    50    1
    52    28    51    1
    53    28    52    1
