#REMARK Cluster   2 of Poses:  2 Score: -7.78 kcal/mol
@<TRIPOS>MOLECULE
64949
 45 46 0 0 0
SMALL
GASTEIGER

@<TRIPOS>ATOM
      1 O1          7.1760   -1.9670   12.0640 O.3       1    UNL1    -0.4918
      2 O2          7.2830   -4.1860    8.7890 O.3       1    UNL1    -0.4918
      3 N3          6.5120    4.0320    9.8160 N.pl3     1    UNL1    -0.2497
      4 N4          3.8930   -5.5420    3.4820 N.pl3     1    UNL1    -0.2497
      5 N5          6.5420    2.7660    7.8520 N.2       1    UNL1    -0.2884
      6 N6          5.9720   -6.4950    3.0020 N.2       1    UNL1    -0.2884
      7 C7          7.3290   -4.1920   11.1970 C.3       1    UNL1     0.0157
      8 C8          6.3960   -3.0760   11.6370 C.3       1    UNL1     0.0927
      9 C9          6.8310   -4.8880    9.9390 C.3       1    UNL1     0.0927
     10 C10         7.0350   -0.8020   11.3560 C.ar      1    UNL1     0.1205
     11 C11         6.7750   -4.5870    7.5810 C.ar      1    UNL1     0.1205
     12 C12         6.1850    0.1910   11.8290 C.ar      1    UNL1    -0.0191
     13 C13         6.0740   -3.6800    6.7940 C.ar      1    UNL1    -0.0191
     14 C14         7.7430   -0.6260   10.1730 C.ar      1    UNL1    -0.0191
     15 C15         6.9660   -5.8960    7.1540 C.ar      1    UNL1    -0.0191
     16 C16         6.7490    1.5620    9.9220 C.ar      1    UNL1     0.0610
     17 C17         5.7460   -5.3990    5.1290 C.ar      1    UNL1     0.0610
     18 C18         6.0420    1.3780   11.1100 C.ar      1    UNL1    -0.0436
     19 C19         5.5580   -4.0870    5.5640 C.ar      1    UNL1    -0.0436
     20 C20         7.5990    0.5610    9.4530 C.ar      1    UNL1    -0.0436
     21 C21         6.4500   -6.3030    5.9240 C.ar      1    UNL1    -0.0436
     22 C22         6.6000    2.7990    9.1720 C.2       1    UNL1     0.2662
     23 C23         5.2090   -5.8240    3.8460 C.2       1    UNL1     0.2662
     24 H1          6.1930    4.0790   10.7460 H         1    UNL1     0.2883
     25 H2          6.7670    4.8550    9.3410 H         1    UNL1     0.2883
     26 H3          3.1510   -5.8120    4.0700 H         1    UNL1     0.2883
     27 H4          3.7060   -5.0730    2.6370 H         1    UNL1     0.2883
     28 H5          6.4410    3.6020    7.3420 H         1    UNL1     0.3009
     29 H6          6.6000    1.9040    7.3790 H         1    UNL1     0.3009
     30 H7          5.6100   -6.7840    2.1340 H         1    UNL1     0.3009
     31 H8          6.9030   -6.7070    3.2420 H         1    UNL1     0.3009
     32 H9          7.4010   -4.9130   11.9840 H         1    UNL1     0.0331
     33 H10         8.2830   -3.7600   10.9790 H         1    UNL1     0.0331
     34 H11         5.7740   -2.7830   10.8170 H         1    UNL1     0.0697
     35 H12         5.7780   -3.4150   12.4410 H         1    UNL1     0.0697
     36 H13         7.2070   -5.8890    9.9150 H         1    UNL1     0.0697
     37 H14         5.7610   -4.9040    9.9450 H         1    UNL1     0.0697
     38 H15         5.6640    0.0520   12.7090 H         1    UNL1     0.0654
     39 H16         5.9370   -2.7100    7.1180 H         1    UNL1     0.0654
     40 H17         8.3710   -1.3680    9.8280 H         1    UNL1     0.0654
     41 H18         7.4880   -6.5630    7.7450 H         1    UNL1     0.0654
     42 H19         5.4130    2.1180   11.4560 H         1    UNL1     0.0627
     43 H20         5.0370   -3.4180    4.9760 H         1    UNL1     0.0627
     44 H21         8.1220    0.6980    8.5740 H         1    UNL1     0.0627
     45 H22         6.5900   -7.2740    5.6020 H         1    UNL1     0.0627
@<TRIPOS>UNITY_ATOM_ATTR
5 1
charge 1
6 1
charge 1
@<TRIPOS>BOND
     1     1     8    1
     2     1    10    1
     3     2     9    1
     4     2    11    1
     5     3    22    1
     6     4    23    1
     7     5    22    2
     8     6    23    2
     9     7     8    1
    10     7     9    1
    11    10    12   ar
    12    10    14   ar
    13    11    13   ar
    14    11    15   ar
    15    12    18   ar
    16    13    19   ar
    17    14    20   ar
    18    15    21   ar
    19    16    18   ar
    20    16    20   ar
    21    16    22    1
    22    17    19   ar
    23    17    21   ar
    24    17    23    1
    25     3    24    1
    26     3    25    1
    27     4    26    1
    28     4    27    1
    29     5    28    1
    30     5    29    1
    31     6    30    1
    32     6    31    1
    33     7    32    1
    34     7    33    1
    35     8    34    1
    36     8    35    1
    37     9    36    1
    38     9    37    1
    39    12    38    1
    40    13    39    1
    41    14    40    1
    42    15    41    1
    43    18    42    1
    44    19    43    1
    45    20    44    1
    46    21    45    1
