#REMARK Cluster  10 of Poses:  1 Score: -7.07 kcal/mol
@<TRIPOS>MOLECULE
2536
 52 53 0 0 0
SMALL
GASTEIGER

@<TRIPOS>ATOM
      1 O1          1.8880   -0.3490   14.6380 O.3       1    UNL1    -0.4550
      2 O2          7.0220   -2.0350    9.5140 O.3       1    UNL1    -0.4223
      3 O3          4.1670   -0.4360   14.9880 O.2       1    UNL1    -0.2505
      4 O4          0.7100    2.0570   15.0390 O.2       1    UNL1    -0.2719
      5 O5          6.4760   -0.3480    8.0020 O.2       1    UNL1    -0.2445
      6 N6          1.7010    2.2160   17.1330 N.am      1    UNL1    -0.3048
      7 N7          5.2400   -5.7240    4.7110 N.pl3     1    UNL1    -0.2464
      8 N8          7.5210   -6.5000    4.6420 N.pl3     1    UNL1    -0.2915
      9 N9          5.9030   -7.5640    3.4340 N.pl3     1    UNL1    -0.2915
     10 C10         4.1270   -2.0700   12.4880 C.ar      1    UNL1    -0.0365
     11 C11         3.0750   -2.0830   13.5680 C.3       1    UNL1     0.0701
     12 C12         3.7500   -1.9510   11.1500 C.ar      1    UNL1    -0.0546
     13 C13         5.4760   -2.1770   12.8270 C.ar      1    UNL1    -0.0546
     14 C14         6.0720   -2.0460   10.4890 C.ar      1    UNL1     0.1320
     15 C15         4.7230   -1.9390   10.1510 C.ar      1    UNL1    -0.0189
     16 C16         6.4480   -2.1650   11.8270 C.ar      1    UNL1    -0.0189
     17 C17         3.1470   -0.8780   14.4750 C.2       1    UNL1     0.3119
     18 C18         1.5370    0.0330   15.9510 C.3       1    UNL1     0.1682
     19 C19         6.2300   -2.6280    7.3520 C.ar      1    UNL1     0.0596
     20 C20         1.2800    1.5250   15.9960 C.2       1    UNL1     0.2528
     21 C21         6.5810   -1.5310    8.2880 C.2       1    UNL1     0.3444
     22 C22         5.8630   -2.3340    6.0390 C.ar      1    UNL1    -0.0445
     23 C23         6.2670   -3.9540    7.7860 C.ar      1    UNL1    -0.0445
     24 C24         5.5700   -4.6910    5.5930 C.ar      1    UNL1     0.0999
     25 C25         5.5330   -3.3650    5.1600 C.ar      1    UNL1    -0.0224
     26 C26         5.9370   -4.9850    6.9060 C.ar      1    UNL1    -0.0224
     27 C27         2.3640    1.6190   18.2890 C.3       1    UNL1     0.0029
     28 C28         1.4680    3.6520   17.2250 C.3       1    UNL1     0.0029
     29 C29         6.1860   -6.5350    4.3010 C.cat     1    UNL1     0.3458
     30 H1          4.3120   -5.8420    4.4030 H         1    UNL1     0.2647
     31 H2          8.1480   -5.9490    4.1190 H         1    UNL1     0.2546
     32 H3          7.8480   -7.0250    5.4070 H         1    UNL1     0.2546
     33 H4          5.2010   -7.4550    2.7530 H         1    UNL1     0.2546
     34 H5          6.4030   -8.4100    3.4950 H         1    UNL1     0.2546
     35 H6          3.2050   -2.9640   14.1600 H         1    UNL1     0.0426
     36 H7          2.1200   -2.0630   13.0850 H         1    UNL1     0.0426
     37 H8          2.7520   -1.8710   10.9000 H         1    UNL1     0.0622
     38 H9          5.7540   -2.2650   13.8170 H         1    UNL1     0.0622
     39 H10         4.4450   -1.8510    9.1610 H         1    UNL1     0.0654
     40 H11         7.4460   -2.2450   12.0780 H         1    UNL1     0.0654
     41 H12         2.3370   -0.2100   16.6190 H         1    UNL1     0.0796
     42 H13         0.6510   -0.4880   16.2470 H         1    UNL1     0.0796
     43 H14         5.8350   -1.3540    5.7180 H         1    UNL1     0.0627
     44 H15         6.5390   -4.1710    8.7570 H         1    UNL1     0.0627
     45 H16         5.2610   -3.1480    4.1880 H         1    UNL1     0.0652
     46 H17         5.9650   -5.9650    7.2270 H         1    UNL1     0.0652
     47 H18         2.4900    0.5690   18.1260 H         1    UNL1     0.0428
     48 H19         1.7670    1.7760   19.1630 H         1    UNL1     0.0428
     49 H20         3.3220    2.0760   18.4260 H         1    UNL1     0.0428
     50 H21         0.9800    3.9920   16.3360 H         1    UNL1     0.0428
     51 H22         2.4030    4.1590   17.3360 H         1    UNL1     0.0428
     52 H23         0.8480    3.8590   18.0730 H         1    UNL1     0.0428
@<TRIPOS>UNITY_ATOM_ATTR
7 1
charge 1
@<TRIPOS>BOND
     1     1    17    1
     2     1    18    1
     3     2    14    1
     4     2    21    1
     5     3    17    2
     6     4    20    2
     7     5    21    2
     8     6    20   am
     9     6    27    1
    10     6    28    1
    11     7    24    1
    12     7    29    2
    13     8    29    1
    14     9    29    1
    15    10    11    1
    16    10    12   ar
    17    10    13   ar
    18    11    17    1
    19    12    15   ar
    20    13    16   ar
    21    14    15   ar
    22    14    16   ar
    23    18    20    1
    24    19    21    1
    25    19    22   ar
    26    19    23   ar
    27    22    25   ar
    28    23    26   ar
    29    24    25   ar
    30    24    26   ar
    31     7    30    1
    32     8    31    1
    33     8    32    1
    34     9    33    1
    35     9    34    1
    36    11    35    1
    37    11    36    1
    38    12    37    1
    39    13    38    1
    40    15    39    1
    41    16    40    1
    42    18    41    1
    43    18    42    1
    44    22    43    1
    45    23    44    1
    46    25    45    1
    47    26    46    1
    48    27    47    1
    49    27    48    1
    50    27    49    1
    51    28    50    1
    52    28    51    1
    53    28    52    1
