#REMARK Cluster   9 of Poses:  1 Score: -7.16 kcal/mol
@<TRIPOS>MOLECULE
2536
 52 53 0 0 0
SMALL
GASTEIGER

@<TRIPOS>ATOM
      1 O1          2.6420    0.9480   15.6240 O.3       1    UNL1    -0.4550
      2 O2          5.4140   -2.7640   10.1850 O.3       1    UNL1    -0.4223
      3 O3          1.5410   -1.0520   15.2970 O.2       1    UNL1    -0.2505
      4 O4          1.7830    4.0320   15.2190 O.2       1    UNL1    -0.2719
      5 O5          7.5170   -3.3800   10.9820 O.2       1    UNL1    -0.2445
      6 N6          1.3780    3.1460   17.3270 N.am      1    UNL1    -0.3048
      7 N7          7.1910   -6.3160    5.2780 N.pl3     1    UNL1    -0.2464
      8 N8          5.0030   -5.6320    4.5320 N.pl3     1    UNL1    -0.2915
      9 N9          6.2980   -6.9830    3.2250 N.pl3     1    UNL1    -0.2915
     10 C10         4.3570   -1.4560   13.9790 C.ar      1    UNL1    -0.0365
     11 C11         3.9730   -0.9800   15.3570 C.3       1    UNL1     0.0701
     12 C12         5.2260   -0.6960   13.1970 C.ar      1    UNL1    -0.0546
     13 C13         3.8430   -2.6560   13.4870 C.ar      1    UNL1    -0.0546
     14 C14         5.0680   -2.3350   11.4290 C.ar      1    UNL1     0.1320
     15 C15         5.5810   -1.1350   11.9220 C.ar      1    UNL1    -0.0189
     16 C16         4.1990   -3.0950   12.2120 C.ar      1    UNL1    -0.0189
     17 C17         2.5760   -0.4100   15.4150 C.2       1    UNL1     0.3119
     18 C18         1.4770    1.6840   15.3170 C.3       1    UNL1     0.1682
     19 C19         6.7890   -4.1780    8.8560 C.ar      1    UNL1     0.0596
     20 C20         1.5630    3.0590   15.9470 C.2       1    UNL1     0.2528
     21 C21         6.6470   -3.4200   10.1250 C.2       1    UNL1     0.3444
     22 C22         6.8430   -3.4980    7.6400 C.ar      1    UNL1    -0.0445
     23 C23         6.8680   -5.5700    8.8810 C.ar      1    UNL1    -0.0445
     24 C24         7.0570   -5.6020    6.4730 C.ar      1    UNL1     0.0999
     25 C25         6.9770   -4.2100    6.4480 C.ar      1    UNL1    -0.0224
     26 C26         7.0020   -6.2820    7.6890 C.ar      1    UNL1    -0.0224
     27 C27         1.1010    2.0220   18.2170 C.3       1    UNL1     0.0029
     28 C28         1.4420    4.4500   17.9770 C.3       1    UNL1     0.0029
     29 C29         6.2060   -6.2950    4.4120 C.cat     1    UNL1     0.3458
     30 H1          8.0120   -6.8260    5.0890 H         1    UNL1     0.2647
     31 H2          4.1980   -6.1220    4.8190 H         1    UNL1     0.2546
     32 H3          4.9490   -4.6700    4.3320 H         1    UNL1     0.2546
     33 H4          6.2110   -6.5030    2.3700 H         1    UNL1     0.2546
     34 H5          6.4500   -7.9560    3.2310 H         1    UNL1     0.2546
     35 H6          4.6640   -0.2220   15.6610 H         1    UNL1     0.0426
     36 H7          4.0000   -1.8290   16.0080 H         1    UNL1     0.0426
     37 H8          5.6060    0.1920   13.5610 H         1    UNL1     0.0622
     38 H9          3.2000   -3.2180   14.0660 H         1    UNL1     0.0622
     39 H10         6.2240   -0.5730   11.3430 H         1    UNL1     0.0654
     40 H11         3.8190   -3.9830   11.8480 H         1    UNL1     0.0654
     41 H12         0.6200    1.1700   15.7000 H         1    UNL1     0.0796
     42 H13         1.3910    1.7850   14.2550 H         1    UNL1     0.0796
     43 H14         6.7840   -2.4680    7.6220 H         1    UNL1     0.0627
     44 H15         6.8280   -6.0740    9.7810 H         1    UNL1     0.0627
     45 H16         7.0180   -3.7060    5.5480 H         1    UNL1     0.0652
     46 H17         7.0610   -7.3130    7.7070 H         1    UNL1     0.0652
     47 H18         1.0740    1.1150   17.6490 H         1    UNL1     0.0428
     48 H19         0.1560    2.1710   18.6970 H         1    UNL1     0.0428
     49 H20         1.8700    1.9560   18.9580 H         1    UNL1     0.0428
     50 H21         1.6480    5.2030   17.2460 H         1    UNL1     0.0428
     51 H22         2.2200    4.4440   18.7120 H         1    UNL1     0.0428
     52 H23         0.5060    4.6580   18.4510 H         1    UNL1     0.0428
@<TRIPOS>UNITY_ATOM_ATTR
7 1
charge 1
@<TRIPOS>BOND
     1     1    17    1
     2     1    18    1
     3     2    14    1
     4     2    21    1
     5     3    17    2
     6     4    20    2
     7     5    21    2
     8     6    20   am
     9     6    27    1
    10     6    28    1
    11     7    24    1
    12     7    29    2
    13     8    29    1
    14     9    29    1
    15    10    11    1
    16    10    12   ar
    17    10    13   ar
    18    11    17    1
    19    12    15   ar
    20    13    16   ar
    21    14    15   ar
    22    14    16   ar
    23    18    20    1
    24    19    21    1
    25    19    22   ar
    26    19    23   ar
    27    22    25   ar
    28    23    26   ar
    29    24    25   ar
    30    24    26   ar
    31     7    30    1
    32     8    31    1
    33     8    32    1
    34     9    33    1
    35     9    34    1
    36    11    35    1
    37    11    36    1
    38    12    37    1
    39    13    38    1
    40    15    39    1
    41    16    40    1
    42    18    41    1
    43    18    42    1
    44    22    43    1
    45    23    44    1
    46    25    45    1
    47    26    46    1
    48    27    47    1
    49    27    48    1
    50    27    49    1
    51    28    50    1
    52    28    51    1
    53    28    52    1
