#REMARK Cluster   7 of Poses:  1 Score: -7.18 kcal/mol
@<TRIPOS>MOLECULE
2536
 52 53 0 0 0
SMALL
GASTEIGER

@<TRIPOS>ATOM
      1 O1          1.6360   -8.7970   12.9690 O.3       1    UNL1    -0.4550
      2 O2          6.6370   -3.5760   10.4450 O.3       1    UNL1    -0.4223
      3 O3          3.1060   -8.5940   11.2030 O.2       1    UNL1    -0.2505
      4 O4          0.0900   -9.8510   14.7680 O.2       1    UNL1    -0.2719
      5 O5          8.7270   -4.6000   10.5720 O.2       1    UNL1    -0.2445
      6 N6         -1.7420  -10.1840   13.3810 N.am      1    UNL1    -0.3048
      7 N7          6.7090   -6.1120    4.6640 N.pl3     1    UNL1    -0.2464
      8 N8          4.4770   -5.2000    4.6930 N.pl3     1    UNL1    -0.2915
      9 N9          5.2600   -6.2750    2.8390 N.pl3     1    UNL1    -0.2915
     10 C10         3.4190   -5.8040   11.8260 C.ar      1    UNL1    -0.0365
     11 C11         2.2500   -6.6130   12.3270 C.3       1    UNL1     0.0701
     12 C12         3.2040   -4.7340   10.9580 C.ar      1    UNL1    -0.0546
     13 C13         4.7150   -6.1260   12.2300 C.ar      1    UNL1    -0.0546
     14 C14         5.5810   -4.3060   10.8980 C.ar      1    UNL1     0.1320
     15 C15         4.2860   -3.9850   10.4940 C.ar      1    UNL1    -0.0189
     16 C16         5.7960   -5.3770   11.7660 C.ar      1    UNL1    -0.0189
     17 C17         2.4050   -8.0930   12.0720 C.2       1    UNL1     0.3119
     18 C18         0.3920   -9.2640   12.4930 C.3       1    UNL1     0.1682
     19 C19         7.4410   -4.8050    8.5750 C.ar      1    UNL1     0.0596
     20 C20        -0.4300   -9.7940   13.6500 C.2       1    UNL1     0.2528
     21 C21         7.7010   -4.3420    9.9610 C.2       1    UNL1     0.3444
     22 C22         7.3980   -3.8840    7.5280 C.ar      1    UNL1    -0.0445
     23 C23         7.2400   -6.1620    8.3190 C.ar      1    UNL1    -0.0445
     24 C24         6.9530   -5.6760    5.9700 C.ar      1    UNL1     0.0999
     25 C25         7.1540   -4.3190    6.2260 C.ar      1    UNL1    -0.0224
     26 C26         6.9960   -6.5970    7.0160 C.ar      1    UNL1    -0.0224
     27 C27        -2.3950  -10.1180   12.0750 C.3       1    UNL1     0.0029
     28 C28        -2.5740  -10.6930   14.4640 C.3       1    UNL1     0.0029
     29 C29         5.5410   -5.8630    4.1200 C.cat     1    UNL1     0.3458
     30 H1          7.4020   -6.5970    4.1600 H         1    UNL1     0.2647
     31 H2          3.5790   -5.6030    4.6780 H         1    UNL1     0.2546
     32 H3          4.6160   -4.3220    5.1180 H         1    UNL1     0.2546
     33 H4          4.4580   -5.9370    2.3780 H         1    UNL1     0.2546
     34 H5          5.8610   -6.9070    2.3820 H         1    UNL1     0.2546
     35 H6          1.3630   -6.2720   11.8340 H         1    UNL1     0.0426
     36 H7          2.1950   -6.4740   13.3870 H         1    UNL1     0.0426
     37 H8          2.2460   -4.4960   10.6590 H         1    UNL1     0.0622
     38 H9          4.8730   -6.9180   12.8730 H         1    UNL1     0.0622
     39 H10         4.1270   -3.1930    9.8510 H         1    UNL1     0.0654
     40 H11         6.7540   -5.6150   12.0650 H         1    UNL1     0.0654
     41 H12         0.5540  -10.0480   11.7830 H         1    UNL1     0.0796
     42 H13        -0.1340   -8.4580   12.0250 H         1    UNL1     0.0796
     43 H14         7.5460   -2.8810    7.7180 H         1    UNL1     0.0627
     44 H15         7.2720   -6.8430    9.0930 H         1    UNL1     0.0627
     45 H16         7.1220   -3.6380    5.4520 H         1    UNL1     0.0652
     46 H17         6.8470   -7.6000    6.8270 H         1    UNL1     0.0652
     47 H18        -1.7060   -9.7340   11.3520 H         1    UNL1     0.0428
     48 H19        -3.2460   -9.4720   12.1350 H         1    UNL1     0.0428
     49 H20        -2.7100  -11.0980   11.7840 H         1    UNL1     0.0428
     50 H21        -2.0100  -10.7030   15.3730 H         1    UNL1     0.0428
     51 H22        -2.8940  -11.6870   14.2320 H         1    UNL1     0.0428
     52 H23        -3.4300  -10.0620   14.5820 H         1    UNL1     0.0428
@<TRIPOS>UNITY_ATOM_ATTR
7 1
charge 1
@<TRIPOS>BOND
     1     1    17    1
     2     1    18    1
     3     2    14    1
     4     2    21    1
     5     3    17    2
     6     4    20    2
     7     5    21    2
     8     6    20   am
     9     6    27    1
    10     6    28    1
    11     7    24    1
    12     7    29    2
    13     8    29    1
    14     9    29    1
    15    10    11    1
    16    10    12   ar
    17    10    13   ar
    18    11    17    1
    19    12    15   ar
    20    13    16   ar
    21    14    15   ar
    22    14    16   ar
    23    18    20    1
    24    19    21    1
    25    19    22   ar
    26    19    23   ar
    27    22    25   ar
    28    23    26   ar
    29    24    25   ar
    30    24    26   ar
    31     7    30    1
    32     8    31    1
    33     8    32    1
    34     9    33    1
    35     9    34    1
    36    11    35    1
    37    11    36    1
    38    12    37    1
    39    13    38    1
    40    15    39    1
    41    16    40    1
    42    18    41    1
    43    18    42    1
    44    22    43    1
    45    23    44    1
    46    25    45    1
    47    26    46    1
    48    27    47    1
    49    27    48    1
    50    27    49    1
    51    28    50    1
    52    28    51    1
    53    28    52    1
