#REMARK Cluster  12 of Poses:  1 Score: -8.14 kcal/mol
@<TRIPOS>MOLECULE
*****
 65 68 0 0 0
SMALL
GASTEIGER

@<TRIPOS>ATOM
      1 C1          5.2300   -4.1700    5.7130 C.ar      1    UNL1    -0.0449
      2 C2          5.7330   -3.9070    6.9920 C.ar      1    UNL1    -0.0334
      3 C3          6.5390   -4.8790    7.6110 C.ar      1    UNL1     0.0895
      4 C4          6.7890   -6.0790    6.9520 C.ar      1    UNL1     0.0673
      5 C5          6.2870   -6.3830    5.6890 C.ar      1    UNL1    -0.0215
      6 C6          5.5130   -5.3860    5.0850 C.ar      1    UNL1     0.0629
      7 C7          4.9990   -5.6280    3.7230 C.2       1    UNL1     0.2662
      8 N8          5.7520   -6.2380    2.8580 N.2       1    UNL1    -0.2884
      9 N9          3.7210   -5.1800    3.4450 N.pl3     1    UNL1    -0.2497
     10 N10         7.5900   -6.7820    7.8130 N.ar      1    UNL1    -0.3378
     11 C11         7.8100   -6.0050    8.9250 C.ar      1    UNL1     0.1428
     12 N12         7.1740   -4.8520    8.8300 N.ar      1    UNL1    -0.2276
     13 C13         8.6240   -6.4500   10.0430 C.ar      1    UNL1     0.0595
     14 C14         9.7580   -5.7080   10.3870 C.ar      1    UNL1    -0.0439
     15 C15        10.5730   -6.1090   11.4500 C.ar      1    UNL1    -0.0372
     16 C16        10.2660   -7.2950   12.1350 C.ar      1    UNL1    -0.0467
     17 C17         9.1200   -8.0580   11.8290 C.ar      1    UNL1     0.0281
     18 C18         8.3020   -7.5990   10.7820 C.ar      1    UNL1     0.1353
     19 O19         7.1600   -8.2880   10.4600 O.3       1    UNL1    -0.5054
     20 C20         8.7950   -9.2500   12.6440 C.ar      1    UNL1     0.0289
     21 C21         8.0050   -9.1040   13.7990 C.ar      1    UNL1    -0.0240
     22 C22         7.7170  -10.1990   14.6230 C.ar      1    UNL1     0.1058
     23 C23         8.1580  -11.4750   14.2950 C.ar      1    UNL1    -0.0319
     24 C24         8.9260  -11.6470   13.1450 C.ar      1    UNL1    -0.0177
     25 C25         9.2540  -10.5440   12.3480 C.ar      1    UNL1     0.1248
     26 O26        10.0240  -10.7780   11.2400 O.3       1    UNL1    -0.5062
     27 S27         6.8130   -9.8670   16.1020 S.O2      1    UNL1     0.0560
     28 O28         7.6150   -8.9250   16.8610 O.2       1    UNL1    -0.1533
     29 O29         5.4620   -9.5450   15.6880 O.2       1    UNL1    -0.1533
     30 N30         6.7960  -11.3550   16.9360 N.3       1    UNL1    -0.2035
     31 C31        11.7570   -5.2670   11.8550 C.3       1    UNL1     0.0491
     32 C32        11.4220   -4.2120   12.8950 C.2       1    UNL1     0.2178
     33 O33        10.8230   -3.1670   12.6560 O.2       1    UNL1    -0.2754
     34 N34        11.8530   -4.5840   14.1570 N.am      1    UNL1    -0.3067
     35 C35        13.0340   -3.9960   14.7750 C.3       1    UNL1     0.0676
     36 C36        12.7230   -2.6910   15.5190 C.3       1    UNL1     0.0105
     37 C37        13.8180   -1.6570   15.3940 C.2       1    UNL1     0.0439
     38 O38        14.5670   -1.2880   16.2860 O.co2     1    UNL1    -0.5497
     39 O39        13.8100   -1.1120   14.1490 O.co2     1    UNL1    -0.5497
     40 C40        13.5710   -5.0500   15.7250 C.2       1    UNL1     0.0623
     41 O41        14.6410   -5.6250   15.5730 O.co2     1    UNL1    -0.5479
     42 O42        12.7560   -5.2670   16.7900 O.co2     1    UNL1    -0.5479
     43 H1          4.6500   -3.4640    5.2320 H         1    UNL1     0.0627
     44 H2          5.5170   -3.0190    7.4710 H         1    UNL1     0.0640
     45 H3          6.4740   -7.2870    5.2280 H         1    UNL1     0.0647
     46 H4          6.6560   -6.5330    3.1150 H         1    UNL1     0.3009
     47 H5          5.4200   -6.4040    1.9470 H         1    UNL1     0.3009
     48 H6          3.5600   -4.6050    2.6620 H         1    UNL1     0.2883
     49 H7          2.9720   -5.4370    4.0300 H         1    UNL1     0.2883
     50 H8          7.9450   -7.6870    7.6610 H         1    UNL1     0.1674
     51 H9          9.9940   -4.8580    9.8530 H         1    UNL1     0.0629
     52 H10        10.8980   -7.6180   12.8840 H         1    UNL1     0.0628
     53 H11         6.8980   -8.3700    9.5640 H         1    UNL1     0.2922
     54 H12         7.6310   -8.1740   14.0430 H         1    UNL1     0.0644
     55 H13         7.9210  -12.2820   14.8930 H         1    UNL1     0.0638
     56 H14         9.2530  -12.5900   12.8800 H         1    UNL1     0.0655
     57 H15         9.6240  -10.8310   10.3940 H         1    UNL1     0.2922
     58 H16         6.8330  -12.1220   16.2650 H         1    UNL1     0.1442
     59 H17         5.9400  -11.4270   17.4870 H         1    UNL1     0.1442
     60 H18        12.1370   -4.7760   10.9840 H         1    UNL1     0.0407
     61 H19        12.4770   -5.9260   12.2940 H         1    UNL1     0.0407
     62 H20        11.3450   -5.2670   14.6520 H         1    UNL1     0.1493
     63 H21        13.7520   -3.7280   14.0280 H         1    UNL1     0.0564
     64 H22        12.5850   -2.9160   16.5560 H         1    UNL1     0.0346
     65 H23        11.8420   -2.2760   15.0770 H         1    UNL1     0.0346
@<TRIPOS>UNITY_ATOM_ATTR
8 1
charge 1
39 1
charge -1
42 1
charge -1
@<TRIPOS>BOND
     1     1     2   ar
     2     1     6   ar
     3     2     3   ar
     4     3     4   ar
     5     3    12   ar
     6     4     5   ar
     7     4    10   ar
     8     5     6   ar
     9     6     7    1
    10     7     8    2
    11     7     9    1
    12    10    11   ar
    13    11    12   ar
    14    11    13    1
    15    13    14   ar
    16    13    18   ar
    17    14    15   ar
    18    15    16   ar
    19    15    31    1
    20    16    17   ar
    21    17    18   ar
    22    17    20    1
    23    18    19    1
    24    20    21   ar
    25    20    25   ar
    26    21    22   ar
    27    22    23   ar
    28    22    27    1
    29    23    24   ar
    30    24    25   ar
    31    25    26    1
    32    27    28    2
    33    27    29    2
    34    27    30    1
    35    31    32    1
    36    32    33    2
    37    32    34   am
    38    34    35    1
    39    35    36    1
    40    35    40    1
    41    36    37    1
    42    37    38   ar
    43    37    39   ar
    44    40    41   ar
    45    40    42   ar
    46     1    43    1
    47     2    44    1
    48     5    45    1
    49     8    46    1
    50     8    47    1
    51     9    48    1
    52     9    49    1
    53    10    50    1
    54    14    51    1
    55    16    52    1
    56    19    53    1
    57    21    54    1
    58    23    55    1
    59    24    56    1
    60    26    57    1
    61    30    58    1
    62    30    59    1
    63    31    60    1
    64    31    61    1
    65    34    62    1
    66    35    63    1
    67    36    64    1
    68    36    65    1
