#REMARK Cluster  11 of Poses:  1 Score: -7.14 kcal/mol
@<TRIPOS>MOLECULE
64949
 45 46 0 0 0
SMALL
GASTEIGER

@<TRIPOS>ATOM
      1 O1          4.8130   -8.2770   11.5600 O.3       1    UNL1    -0.4918
      2 O2          7.0960   -5.4690    9.9850 O.3       1    UNL1    -0.4918
      3 N3         -1.2250   -8.5830   13.7790 N.pl3     1    UNL1    -0.2497
      4 N4          4.3920   -4.6730    4.1930 N.pl3     1    UNL1    -0.2497
      5 N5         -1.5470   -8.5480   11.4640 N.2       1    UNL1    -0.2884
      6 N6          5.9150   -2.9030    4.2790 N.2       1    UNL1    -0.2884
      7 C7          6.9550   -7.2120   11.6410 C.3       1    UNL1     0.0157
      8 C8          5.4670   -7.0650   11.9130 C.3       1    UNL1     0.0927
      9 C9          7.3100   -6.8570   10.2060 C.3       1    UNL1     0.0927
     10 C10         3.4630   -8.3390   11.7860 C.ar      1    UNL1     0.1205
     11 C11         6.6750   -5.1000    8.7340 C.ar      1    UNL1     0.1205
     12 C12         2.8420   -9.5770   11.9060 C.ar      1    UNL1    -0.0191
     13 C13         6.0880   -3.8540    8.5460 C.ar      1    UNL1    -0.0191
     14 C14         2.7280   -7.1640   11.8930 C.ar      1    UNL1    -0.0191
     15 C15         6.8410   -5.9740    7.6670 C.ar      1    UNL1    -0.0191
     16 C16         0.7240   -8.4660   12.2450 C.ar      1    UNL1     0.0610
     17 C17         5.8240   -4.3490    6.1960 C.ar      1    UNL1     0.0610
     18 C18         1.4680   -9.6410   12.1360 C.ar      1    UNL1    -0.0436
     19 C19         5.6610   -3.4770    7.2730 C.ar      1    UNL1    -0.0436
     20 C20         1.3540   -7.2270   12.1230 C.ar      1    UNL1    -0.0436
     21 C21         6.4140   -5.5980    6.3930 C.ar      1    UNL1    -0.0436
     22 C22        -0.7090   -8.5320   12.4850 C.2       1    UNL1     0.2662
     23 C23         5.3780   -3.9570    4.8690 C.2       1    UNL1     0.2662
     24 H1         -1.3080   -9.4480   14.2420 H         1    UNL1     0.2883
     25 H2         -1.5070   -7.7550   14.2300 H         1    UNL1     0.2883
     26 H3          3.9530   -5.4380    4.6310 H         1    UNL1     0.2883
     27 H4          4.1350   -4.4150    3.2790 H         1    UNL1     0.2883
     28 H5         -2.5180   -8.5930   11.6250 H         1    UNL1     0.3009
     29 H6         -1.2020   -8.5160   10.5430 H         1    UNL1     0.3009
     30 H7          5.6150   -2.6360    3.3810 H         1    UNL1     0.3009
     31 H8          6.6150   -2.3850    4.7390 H         1    UNL1     0.3009
     32 H9          7.2410   -8.2270   11.8270 H         1    UNL1     0.0331
     33 H10         7.4770   -6.5380   12.2870 H         1    UNL1     0.0331
     34 H11         5.3100   -6.8610   12.9510 H         1    UNL1     0.0697
     35 H12         5.0710   -6.2570   11.3330 H         1    UNL1     0.0697
     36 H13         8.3390   -7.0900   10.0270 H         1    UNL1     0.0697
     37 H14         6.6910   -7.4200    9.5390 H         1    UNL1     0.0697
     38 H15         3.3950  -10.4440   11.8250 H         1    UNL1     0.0654
     39 H16         5.9690   -3.2110    9.3450 H         1    UNL1     0.0654
     40 H17         3.1970   -6.2490   11.8030 H         1    UNL1     0.0654
     41 H18         7.2770   -6.8980    7.8150 H         1    UNL1     0.0654
     42 H19         1.0020  -10.5570   12.2260 H         1    UNL1     0.0627
     43 H20         5.2240   -2.5530    7.1270 H         1    UNL1     0.0627
     44 H21         0.8040   -6.3580   12.2040 H         1    UNL1     0.0627
     45 H22         6.5340   -6.2430    5.5970 H         1    UNL1     0.0627
@<TRIPOS>UNITY_ATOM_ATTR
5 1
charge 1
6 1
charge 1
@<TRIPOS>BOND
     1     1     8    1
     2     1    10    1
     3     2     9    1
     4     2    11    1
     5     3    22    1
     6     4    23    1
     7     5    22    2
     8     6    23    2
     9     7     8    1
    10     7     9    1
    11    10    12   ar
    12    10    14   ar
    13    11    13   ar
    14    11    15   ar
    15    12    18   ar
    16    13    19   ar
    17    14    20   ar
    18    15    21   ar
    19    16    18   ar
    20    16    20   ar
    21    16    22    1
    22    17    19   ar
    23    17    21   ar
    24    17    23    1
    25     3    24    1
    26     3    25    1
    27     4    26    1
    28     4    27    1
    29     5    28    1
    30     5    29    1
    31     6    30    1
    32     6    31    1
    33     7    32    1
    34     7    33    1
    35     8    34    1
    36     8    35    1
    37     9    36    1
    38     9    37    1
    39    12    38    1
    40    13    39    1
    41    14    40    1
    42    15    41    1
    43    18    42    1
    44    19    43    1
    45    20    44    1
    46    21    45    1
