#REMARK Cluster   8 of Poses:  1 Score: -8.48 kcal/mol
@<TRIPOS>MOLECULE
*****
 65 68 0 0 0
SMALL
GASTEIGER

@<TRIPOS>ATOM
      1 C1          0.0590  -10.5940   12.6280 C.ar      1    UNL1    -0.0449
      2 C2          1.3970  -10.1870   12.5820 C.ar      1    UNL1    -0.0334
      3 C3          1.6800   -8.8240   12.3840 C.ar      1    UNL1     0.0895
      4 C4          0.6300   -7.9270   12.2110 C.ar      1    UNL1     0.0673
      5 C5         -0.7120   -8.2990   12.2280 C.ar      1    UNL1    -0.0215
      6 C6         -0.9640   -9.6570   12.4560 C.ar      1    UNL1     0.0629
      7 C7         -2.3680  -10.1030   12.5420 C.2       1    UNL1     0.2662
      8 N8         -2.8260  -10.5500   13.6720 N.2       1    UNL1    -0.2884
      9 N9         -3.1250  -10.0160   11.3890 N.pl3     1    UNL1    -0.2497
     10 N10         1.2410   -6.7120   12.0480 N.ar      1    UNL1    -0.3378
     11 C11         2.5990   -6.8990   12.1430 C.ar      1    UNL1     0.1428
     12 N12         2.8890   -8.1710   12.3350 N.ar      1    UNL1    -0.2276
     13 C13         3.5500   -5.8080   12.0160 C.ar      1    UNL1     0.0595
     14 C14         3.6710   -4.8950   13.0680 C.ar      1    UNL1    -0.0439
     15 C15         4.5680   -3.8250   12.9810 C.ar      1    UNL1    -0.0372
     16 C16         5.3090   -3.6520   11.8010 C.ar      1    UNL1    -0.0467
     17 C17         5.2290   -4.5640   10.7290 C.ar      1    UNL1     0.0281
     18 C18         4.3470   -5.6500   10.8720 C.ar      1    UNL1     0.1353
     19 O19         4.2500   -6.5820    9.8700 O.3       1    UNL1    -0.5054
     20 C20         6.1010   -4.3830    9.5470 C.ar      1    UNL1     0.0289
     21 C21         5.6710   -3.5590    8.4910 C.ar      1    UNL1    -0.0240
     22 C22         6.4450   -3.4010    7.3340 C.ar      1    UNL1     0.1058
     23 C23         7.6880   -4.0110    7.2160 C.ar      1    UNL1    -0.0319
     24 C24         8.1430   -4.8160    8.2590 C.ar      1    UNL1    -0.0177
     25 C25         7.3480   -5.0120    9.3940 C.ar      1    UNL1     0.1248
     26 O26         7.8460   -5.8270   10.3760 O.3       1    UNL1    -0.5062
     27 S27         5.7440   -2.4350    6.0340 S.O2      1    UNL1     0.0560
     28 O28         6.2360   -1.0830    6.2260 O.2       1    UNL1    -0.1533
     29 O29         5.9980   -3.1620    4.8060 O.2       1    UNL1    -0.1533
     30 N30         4.0660   -2.4480    6.3470 N.3       1    UNL1    -0.2035
     31 C31         4.7370   -2.8830   14.1460 C.3       1    UNL1     0.0491
     32 C32         3.9620   -1.5850   13.9920 C.2       1    UNL1     0.2178
     33 O33         4.3950   -0.5800   13.4360 O.2       1    UNL1    -0.2754
     34 N34         2.6930   -1.6820   14.5340 N.am      1    UNL1    -0.3067
     35 C35         2.3480   -1.0680   15.8100 C.3       1    UNL1     0.0676
     36 C36         0.8980   -0.5680   15.8510 C.3       1    UNL1     0.0105
     37 C37         0.5120    0.0340   17.1830 C.2       1    UNL1     0.0439
     38 O38         0.8460    1.1330   17.6010 O.co2     1    UNL1    -0.5497
     39 O39        -0.2050   -0.8600   17.9130 O.co2     1    UNL1    -0.5497
     40 C40         2.5850   -2.1370   16.8600 C.2       1    UNL1     0.0623
     41 O41         3.2970   -1.9820   17.8440 O.co2     1    UNL1    -0.5479
     42 O42         1.8930   -3.2810   16.6170 O.co2     1    UNL1    -0.5479
     43 H1         -0.1720  -11.5860   12.7880 H         1    UNL1     0.0627
     44 H2          2.1610  -10.8730   12.6910 H         1    UNL1     0.0640
     45 H3         -1.4730   -7.6170   12.0820 H         1    UNL1     0.0647
     46 H4         -2.2380  -10.5890   14.4600 H         1    UNL1     0.3009
     47 H5         -3.7610  -10.8510   13.7400 H         1    UNL1     0.3009
     48 H6         -3.4160  -10.8360   10.9270 H         1    UNL1     0.2883
     49 H7         -3.3740   -9.1340   11.0290 H         1    UNL1     0.2883
     50 H8          0.7860   -5.8530   11.8900 H         1    UNL1     0.1674
     51 H9          3.0940   -5.0110   13.9150 H         1    UNL1     0.0629
     52 H10         5.9310   -2.8330   11.7170 H         1    UNL1     0.0628
     53 H11         4.9810   -7.1350    9.6720 H         1    UNL1     0.2922
     54 H12         4.7700   -3.0620    8.5700 H         1    UNL1     0.0644
     55 H13         8.2640   -3.8700    6.3720 H         1    UNL1     0.0638
     56 H14         9.0690   -5.2680    8.1940 H         1    UNL1     0.0655
     57 H15         8.0810   -6.7120   10.1770 H         1    UNL1     0.2922
     58 H16         3.8460   -1.7410    7.0490 H         1    UNL1     0.1442
     59 H17         3.7920   -3.3670    6.6920 H         1    UNL1     0.1442
     60 H18         5.7770   -2.6470   14.2420 H         1    UNL1     0.0407
     61 H19         4.3520   -3.3790   15.0120 H         1    UNL1     0.0407
     62 H20         2.0010   -2.1800   14.0430 H         1    UNL1     0.1493
     63 H21         2.9480   -0.1990   15.9800 H         1    UNL1     0.0564
     64 H22         0.2480   -1.3940   15.6510 H         1    UNL1     0.0346
     65 H23         0.8080    0.2040   15.1160 H         1    UNL1     0.0346
@<TRIPOS>UNITY_ATOM_ATTR
8 1
charge 1
39 1
charge -1
42 1
charge -1
@<TRIPOS>BOND
     1     1     2   ar
     2     1     6   ar
     3     2     3   ar
     4     3     4   ar
     5     3    12   ar
     6     4     5   ar
     7     4    10   ar
     8     5     6   ar
     9     6     7    1
    10     7     8    2
    11     7     9    1
    12    10    11   ar
    13    11    12   ar
    14    11    13    1
    15    13    14   ar
    16    13    18   ar
    17    14    15   ar
    18    15    16   ar
    19    15    31    1
    20    16    17   ar
    21    17    18   ar
    22    17    20    1
    23    18    19    1
    24    20    21   ar
    25    20    25   ar
    26    21    22   ar
    27    22    23   ar
    28    22    27    1
    29    23    24   ar
    30    24    25   ar
    31    25    26    1
    32    27    28    2
    33    27    29    2
    34    27    30    1
    35    31    32    1
    36    32    33    2
    37    32    34   am
    38    34    35    1
    39    35    36    1
    40    35    40    1
    41    36    37    1
    42    37    38   ar
    43    37    39   ar
    44    40    41   ar
    45    40    42   ar
    46     1    43    1
    47     2    44    1
    48     5    45    1
    49     8    46    1
    50     8    47    1
    51     9    48    1
    52     9    49    1
    53    10    50    1
    54    14    51    1
    55    16    52    1
    56    19    53    1
    57    21    54    1
    58    23    55    1
    59    24    56    1
    60    26    57    1
    61    30    58    1
    62    30    59    1
    63    31    60    1
    64    31    61    1
    65    34    62    1
    66    35    63    1
    67    36    64    1
    68    36    65    1
