#REMARK Cluster  14 of Poses:  1 Score: -7.89 kcal/mol
@<TRIPOS>MOLECULE
*****
 65 68 0 0 0
SMALL
GASTEIGER

@<TRIPOS>ATOM
      1 C1          7.3650   -4.1030    6.8260 C.ar      1    UNL1    -0.0449
      2 C2          7.4650   -5.0050    7.8910 C.ar      1    UNL1    -0.0334
      3 C3          6.4440   -5.0210    8.8580 C.ar      1    UNL1     0.0895
      4 C4          5.3850   -4.1260    8.7470 C.ar      1    UNL1     0.0673
      5 C5          5.2640   -3.1990    7.7130 C.ar      1    UNL1    -0.0215
      6 C6          6.2790   -3.2270    6.7500 C.ar      1    UNL1     0.0629
      7 C7          6.1770   -2.3070    5.6000 C.2       1    UNL1     0.2662
      8 N8          6.0970   -1.0290    5.8140 N.2       1    UNL1    -0.2884
      9 N9          6.1720   -2.8750    4.3400 N.pl3     1    UNL1    -0.2497
     10 N10         4.5880   -4.4030    9.8260 N.ar      1    UNL1    -0.3378
     11 C11         5.1590   -5.4380   10.5260 C.ar      1    UNL1     0.1428
     12 N12         6.2900   -5.8210    9.9650 N.ar      1    UNL1    -0.2276
     13 C13         4.5680   -5.9870   11.7350 C.ar      1    UNL1     0.0595
     14 C14         4.8450   -5.3720   12.9590 C.ar      1    UNL1    -0.0439
     15 C15         4.3040   -5.8750   14.1460 C.ar      1    UNL1    -0.0372
     16 C16         3.5170   -7.0370   14.0970 C.ar      1    UNL1    -0.0467
     17 C17         3.1980   -7.6710   12.8790 C.ar      1    UNL1     0.0281
     18 C18         3.7270   -7.1100   11.7030 C.ar      1    UNL1     0.1353
     19 O19         3.4260   -7.6720   10.4880 O.3       1    UNL1    -0.5054
     20 C20         2.2890   -8.8390   12.8780 C.ar      1    UNL1     0.0289
     21 C21         2.7930  -10.1060   12.5300 C.ar      1    UNL1    -0.0240
     22 C22         1.9550  -11.2270   12.4690 C.ar      1    UNL1     0.1058
     23 C23         0.6100  -11.1330   12.8030 C.ar      1    UNL1    -0.0319
     24 C24         0.0930   -9.8920   13.1700 C.ar      1    UNL1    -0.0177
     25 C25         0.9200   -8.7620   13.1840 C.ar      1    UNL1     0.1248
     26 O26         0.3480   -7.5690   13.5390 O.3       1    UNL1    -0.5062
     27 S27         2.6820  -12.7340   11.9090 S.O2      1    UNL1     0.0560
     28 O28         2.2300  -13.7640   12.8250 O.2       1    UNL1    -0.1533
     29 O29         2.4060  -12.8150   10.4880 O.2       1    UNL1    -0.1533
     30 N30         4.3590  -12.5100   12.1340 N.3       1    UNL1    -0.2035
     31 C31         4.5580   -5.1680   15.4530 C.3       1    UNL1     0.0491
     32 C32         3.2940   -4.6380   16.1090 C.2       1    UNL1     0.2178
     33 O33         2.9950   -3.4500   16.1820 O.2       1    UNL1    -0.2754
     34 N34         2.5030   -5.6640   16.5960 N.am      1    UNL1    -0.3067
     35 C35         2.4260   -5.9730   18.0190 C.3       1    UNL1     0.0676
     36 C36         0.9860   -5.9640   18.5470 C.3       1    UNL1     0.0105
     37 C37         0.5720   -4.6330   19.1310 C.2       1    UNL1     0.0439
     38 O38         0.3120   -4.4110   20.3050 O.co2     1    UNL1    -0.5497
     39 O39         0.4420   -3.7070   18.1460 O.co2     1    UNL1    -0.5497
     40 C40         3.0560   -7.3430   18.1790 C.2       1    UNL1     0.0623
     41 O41         4.1590   -7.5340   18.6740 O.co2     1    UNL1    -0.5479
     42 O42         2.2520   -8.3500   17.7480 O.co2     1    UNL1    -0.5479
     43 H1          8.0940   -4.0850    6.0950 H         1    UNL1     0.0627
     44 H2          8.2710   -5.6460    7.9650 H         1    UNL1     0.0640
     45 H3          4.4760   -2.5350    7.6620 H         1    UNL1     0.0647
     46 H4          6.1060   -0.6820    6.7360 H         1    UNL1     0.3009
     47 H5          6.0290   -0.4060    5.0550 H         1    UNL1     0.3009
     48 H6          6.8370   -2.5940    3.6710 H         1    UNL1     0.2883
     49 H7          5.5030   -3.5610    4.1120 H         1    UNL1     0.2883
     50 H8          3.7500   -3.9410   10.0590 H         1    UNL1     0.1674
     51 H9          5.4550   -4.5400   12.9870 H         1    UNL1     0.0629
     52 H10         3.1620   -7.4380   14.9790 H         1    UNL1     0.0628
     53 H11         4.0940   -8.1040    9.9930 H         1    UNL1     0.2922
     54 H12         3.7970  -10.2120   12.3160 H         1    UNL1     0.0644
     55 H13         0.0040  -11.9680   12.7810 H         1    UNL1     0.0638
     56 H14        -0.9010   -9.8050   13.4330 H         1    UNL1     0.0655
     57 H15        -0.4840   -7.3250   13.1850 H         1    UNL1     0.2922
     58 H16         4.8560  -12.7860   11.2870 H         1    UNL1     0.1442
     59 H17         4.6770  -13.0840   12.9160 H         1    UNL1     0.1442
     60 H18         5.2160   -4.3440   15.2710 H         1    UNL1     0.0407
     61 H19         4.9830   -5.8860   16.1220 H         1    UNL1     0.0407
     62 H20         1.9760   -6.2020   15.9630 H         1    UNL1     0.1493
     63 H21         2.9380   -5.2270   18.5900 H         1    UNL1     0.0564
     64 H22         0.8980   -6.7120   19.3070 H         1    UNL1     0.0346
     65 H23         0.3420   -6.1590   17.7150 H         1    UNL1     0.0346
@<TRIPOS>UNITY_ATOM_ATTR
8 1
charge 1
39 1
charge -1
42 1
charge -1
@<TRIPOS>BOND
     1     1     2   ar
     2     1     6   ar
     3     2     3   ar
     4     3     4   ar
     5     3    12   ar
     6     4     5   ar
     7     4    10   ar
     8     5     6   ar
     9     6     7    1
    10     7     8    2
    11     7     9    1
    12    10    11   ar
    13    11    12   ar
    14    11    13    1
    15    13    14   ar
    16    13    18   ar
    17    14    15   ar
    18    15    16   ar
    19    15    31    1
    20    16    17   ar
    21    17    18   ar
    22    17    20    1
    23    18    19    1
    24    20    21   ar
    25    20    25   ar
    26    21    22   ar
    27    22    23   ar
    28    22    27    1
    29    23    24   ar
    30    24    25   ar
    31    25    26    1
    32    27    28    2
    33    27    29    2
    34    27    30    1
    35    31    32    1
    36    32    33    2
    37    32    34   am
    38    34    35    1
    39    35    36    1
    40    35    40    1
    41    36    37    1
    42    37    38   ar
    43    37    39   ar
    44    40    41   ar
    45    40    42   ar
    46     1    43    1
    47     2    44    1
    48     5    45    1
    49     8    46    1
    50     8    47    1
    51     9    48    1
    52     9    49    1
    53    10    50    1
    54    14    51    1
    55    16    52    1
    56    19    53    1
    57    21    54    1
    58    23    55    1
    59    24    56    1
    60    26    57    1
    61    30    58    1
    62    30    59    1
    63    31    60    1
    64    31    61    1
    65    34    62    1
    66    35    63    1
    67    36    64    1
    68    36    65    1
