#REMARK Cluster  14 of Poses:  1 Score: -6.96 kcal/mol
@<TRIPOS>MOLECULE
64949
 45 46 0 0 0
SMALL
GASTEIGER

@<TRIPOS>ATOM
      1 O1          4.5960   -3.2800   11.0670 O.3       1    UNL1    -0.4918
      2 O2          6.1220   -2.1750    7.5690 O.3       1    UNL1    -0.4918
      3 N3          3.7670   -9.6620   10.8250 N.pl3     1    UNL1    -0.2497
      4 N4          5.5280   -6.4870    2.8210 N.pl3     1    UNL1    -0.2497
      5 N5          3.1700   -9.1670   13.0300 N.2       1    UNL1    -0.2884
      6 N6          6.7990   -7.6540    4.3980 N.2       1    UNL1    -0.2884
      7 C7          6.3250   -2.0460    9.9650 C.3       1    UNL1     0.0157
      8 C8          5.9440   -2.8510   11.1970 C.3       1    UNL1     0.0927
      9 C9          5.4090   -2.3390    8.7870 C.3       1    UNL1     0.0927
     10 C10         4.3500   -4.6140   11.2600 C.ar      1    UNL1     0.1205
     11 C11         6.1330   -3.2440    6.7110 C.ar      1    UNL1     0.1205
     12 C12         3.0800   -5.0310   11.6410 C.ar      1    UNL1    -0.0191
     13 C13         5.3870   -3.1920    5.5390 C.ar      1    UNL1    -0.0191
     14 C14         5.3730   -5.5370   11.0710 C.ar      1    UNL1    -0.0191
     15 C15         6.8920   -4.3670    7.0200 C.ar      1    UNL1    -0.0191
     16 C16         3.8500   -7.3210   11.6490 C.ar      1    UNL1     0.0610
     17 C17         6.1580   -5.4100    4.9680 C.ar      1    UNL1     0.0610
     18 C18         2.8290   -6.3890   11.8360 C.ar      1    UNL1    -0.0436
     19 C19         5.4000   -4.2790    4.6650 C.ar      1    UNL1    -0.0436
     20 C20         5.1220   -6.8950   11.2660 C.ar      1    UNL1    -0.0436
     21 C21         6.9040   -5.4540    6.1460 C.ar      1    UNL1    -0.0436
     22 C22         3.5890   -8.7370   11.8530 C.2       1    UNL1     0.2662
     23 C23         6.1710   -6.5430    4.0570 C.2       1    UNL1     0.2662
     24 H1          3.1450  -10.4190   10.7310 H         1    UNL1     0.2883
     25 H2          4.5140   -9.5580   10.1930 H         1    UNL1     0.2883
     26 H3          4.5460   -6.5430    2.7740 H         1    UNL1     0.2883
     27 H4          6.0560   -6.3920    1.9960 H         1    UNL1     0.2883
     28 H5          2.9930  -10.1250   13.1690 H         1    UNL1     0.3009
     29 H6          3.0350   -8.5290   13.7670 H         1    UNL1     0.3009
     30 H7          6.8090   -8.4230    3.7820 H         1    UNL1     0.3009
     31 H8          7.2560   -7.7150    5.2670 H         1    UNL1     0.3009
     32 H9          7.3300   -2.2900    9.6910 H         1    UNL1     0.0331
     33 H10         6.2310   -1.0080   10.2070 H         1    UNL1     0.0331
     34 H11         6.5850   -3.7030   11.2820 H         1    UNL1     0.0697
     35 H12         6.0490   -2.2450   12.0730 H         1    UNL1     0.0697
     36 H13         5.0520   -3.3450    8.8570 H         1    UNL1     0.0697
     37 H14         4.5820   -1.6600    8.8060 H         1    UNL1     0.0697
     38 H15         2.3260   -4.3400   11.7790 H         1    UNL1     0.0654
     39 H16         4.8270   -2.3540    5.3170 H         1    UNL1     0.0654
     40 H17         6.3130   -5.2180   10.7880 H         1    UNL1     0.0654
     41 H18         7.4430   -4.3970    7.8930 H         1    UNL1     0.0654
     42 H19         1.8880   -6.7050   12.1200 H         1    UNL1     0.0627
     43 H20         4.8470   -4.2470    3.7940 H         1    UNL1     0.0627
     44 H21         5.8770   -7.5840   11.1280 H         1    UNL1     0.0627
     45 H22         7.4650   -6.2900    6.3700 H         1    UNL1     0.0627
@<TRIPOS>UNITY_ATOM_ATTR
5 1
charge 1
6 1
charge 1
@<TRIPOS>BOND
     1     1     8    1
     2     1    10    1
     3     2     9    1
     4     2    11    1
     5     3    22    1
     6     4    23    1
     7     5    22    2
     8     6    23    2
     9     7     8    1
    10     7     9    1
    11    10    12   ar
    12    10    14   ar
    13    11    13   ar
    14    11    15   ar
    15    12    18   ar
    16    13    19   ar
    17    14    20   ar
    18    15    21   ar
    19    16    18   ar
    20    16    20   ar
    21    16    22    1
    22    17    19   ar
    23    17    21   ar
    24    17    23    1
    25     3    24    1
    26     3    25    1
    27     4    26    1
    28     4    27    1
    29     5    28    1
    30     5    29    1
    31     6    30    1
    32     6    31    1
    33     7    32    1
    34     7    33    1
    35     8    34    1
    36     8    35    1
    37     9    36    1
    38     9    37    1
    39    12    38    1
    40    13    39    1
    41    14    40    1
    42    15    41    1
    43    18    42    1
    44    19    43    1
    45    20    44    1
    46    21    45    1
