#REMARK Cluster   7 of Poses:  2 Score: -8.56 kcal/mol
@<TRIPOS>MOLECULE
*****
 65 68 0 0 0
SMALL
GASTEIGER

@<TRIPOS>ATOM
      1 C1          6.6640   -5.6720    5.4900 C.ar      1    UNL1    -0.0449
      2 C2          7.2230   -5.0770    6.6270 C.ar      1    UNL1    -0.0334
      3 C3          6.5520   -3.9920    7.2180 C.ar      1    UNL1     0.0895
      4 C4          5.3740   -3.5240    6.6440 C.ar      1    UNL1     0.0673
      5 C5          4.8010   -4.0760    5.5010 C.ar      1    UNL1    -0.0215
      6 C6          5.4750   -5.1730    4.9520 C.ar      1    UNL1     0.0629
      7 C7          4.8870   -5.8360    3.7720 C.2       1    UNL1     0.2662
      8 N8          3.6020   -5.7840    3.5880 N.2       1    UNL1    -0.2884
      9 N9          5.7580   -6.4860    2.9170 N.pl3     1    UNL1    -0.2497
     10 N10         4.9890   -2.4860    7.4510 N.ar      1    UNL1    -0.3378
     11 C11         5.9050   -2.3720    8.4690 C.ar      1    UNL1     0.1428
     12 N12         6.8670   -3.2660    8.3420 N.ar      1    UNL1    -0.2276
     13 C13         5.7970   -1.3650    9.5110 C.ar      1    UNL1     0.0595
     14 C14         6.2320   -0.0650    9.2380 C.ar      1    UNL1    -0.0439
     15 C15         6.1540    0.9310   10.2160 C.ar      1    UNL1    -0.0372
     16 C16         5.6800    0.5950   11.4940 C.ar      1    UNL1    -0.0467
     17 C17         5.2130   -0.7010   11.8000 C.ar      1    UNL1     0.0281
     18 C18         5.2680   -1.6630   10.7760 C.ar      1    UNL1     0.1353
     19 O19         4.8020   -2.9320   11.0110 O.3       1    UNL1    -0.5054
     20 C20         4.6390   -0.9760   13.1360 C.ar      1    UNL1     0.0289
     21 C21         4.7060   -2.2780   13.6620 C.ar      1    UNL1    -0.0240
     22 C22         4.1300   -2.5900   14.9000 C.ar      1    UNL1     0.1058
     23 C23         3.5230   -1.6080   15.6740 C.ar      1    UNL1    -0.0319
     24 C24         3.4630   -0.3060   15.1810 C.ar      1    UNL1    -0.0177
     25 C25         3.9940   -0.0050   13.9220 C.ar      1    UNL1     0.1248
     26 O26         3.8890    1.2900   13.4890 O.3       1    UNL1    -0.5062
     27 S27         4.1800   -4.2830   15.3980 S.O2      1    UNL1     0.0560
     28 O28         5.3870   -4.4350   16.1880 O.2       1    UNL1    -0.1533
     29 O29         2.8740   -4.5820   15.9500 O.2       1    UNL1    -0.1533
     30 N30         4.3760   -5.1510   13.9420 N.3       1    UNL1    -0.2035
     31 C31         6.5660    2.3450    9.8930 C.3       1    UNL1     0.0491
     32 C32         8.0550    2.4960    9.6300 C.2       1    UNL1     0.2178
     33 O33         8.8500    1.5620    9.5800 O.2       1    UNL1    -0.2754
     34 N34         8.4060    3.8200    9.4290 N.am      1    UNL1    -0.3067
     35 C35         9.0880    4.6030   10.4510 C.3       1    UNL1     0.0676
     36 C36         8.3550    4.5800   11.7990 C.3       1    UNL1     0.0105
     37 C37         8.6000    5.8180   12.6320 C.2       1    UNL1     0.0439
     38 O38         8.2030    6.9460   12.3820 O.co2     1    UNL1    -0.5497
     39 O39         9.4120    5.5240   13.6820 O.co2     1    UNL1    -0.5497
     40 C40        10.4750    4.0010   10.5750 C.2       1    UNL1     0.0623
     41 O41        10.9310    3.5470   11.6160 O.co2     1    UNL1    -0.5479
     42 O42        11.1510    3.9820    9.3960 O.co2     1    UNL1    -0.5479
     43 H1          7.1310   -6.4790    5.0490 H         1    UNL1     0.0627
     44 H2          8.1100   -5.4270    7.0230 H         1    UNL1     0.0640
     45 H3          3.9350   -3.7000    5.0850 H         1    UNL1     0.0647
     46 H4          3.0320   -5.3050    4.2320 H         1    UNL1     0.3009
     47 H5          3.1990   -6.2230    2.8040 H         1    UNL1     0.3009
     48 H6          6.6990   -6.2030    2.8660 H         1    UNL1     0.2883
     49 H7          5.4360   -7.2310    2.3600 H         1    UNL1     0.2883
     50 H8          4.1930   -1.9200    7.3240 H         1    UNL1     0.1674
     51 H9          6.6130    0.1620    8.3060 H         1    UNL1     0.0629
     52 H10         5.6720    1.3170   12.2320 H         1    UNL1     0.0628
     53 H11         4.8580   -3.5830   10.3400 H         1    UNL1     0.2922
     54 H12         5.1870   -3.0180   13.1260 H         1    UNL1     0.0644
     55 H13         3.1240   -1.8400   16.5970 H         1    UNL1     0.0638
     56 H14         3.0250    0.4380   15.7470 H         1    UNL1     0.0655
     57 H15         3.0460    1.6570   13.3080 H         1    UNL1     0.2922
     58 H16         5.1150   -5.8450   14.0560 H         1    UNL1     0.1442
     59 H17         4.6290   -4.5060   13.1930 H         1    UNL1     0.1442
     60 H18         6.3020    2.9720   10.7180 H         1    UNL1     0.0407
     61 H19         6.0580    2.6230    8.9930 H         1    UNL1     0.0407
     62 H20         8.1870    4.2450    8.5680 H         1    UNL1     0.1493
     63 H21         9.1220    5.6350   10.1690 H         1    UNL1     0.0564
     64 H22         8.6880    3.7270   12.3520 H         1    UNL1     0.0346
     65 H23         7.3070    4.5410   11.5890 H         1    UNL1     0.0346
@<TRIPOS>UNITY_ATOM_ATTR
8 1
charge 1
39 1
charge -1
42 1
charge -1
@<TRIPOS>BOND
     1     1     2   ar
     2     1     6   ar
     3     2     3   ar
     4     3     4   ar
     5     3    12   ar
     6     4     5   ar
     7     4    10   ar
     8     5     6   ar
     9     6     7    1
    10     7     8    2
    11     7     9    1
    12    10    11   ar
    13    11    12   ar
    14    11    13    1
    15    13    14   ar
    16    13    18   ar
    17    14    15   ar
    18    15    16   ar
    19    15    31    1
    20    16    17   ar
    21    17    18   ar
    22    17    20    1
    23    18    19    1
    24    20    21   ar
    25    20    25   ar
    26    21    22   ar
    27    22    23   ar
    28    22    27    1
    29    23    24   ar
    30    24    25   ar
    31    25    26    1
    32    27    28    2
    33    27    29    2
    34    27    30    1
    35    31    32    1
    36    32    33    2
    37    32    34   am
    38    34    35    1
    39    35    36    1
    40    35    40    1
    41    36    37    1
    42    37    38   ar
    43    37    39   ar
    44    40    41   ar
    45    40    42   ar
    46     1    43    1
    47     2    44    1
    48     5    45    1
    49     8    46    1
    50     8    47    1
    51     9    48    1
    52     9    49    1
    53    10    50    1
    54    14    51    1
    55    16    52    1
    56    19    53    1
    57    21    54    1
    58    23    55    1
    59    24    56    1
    60    26    57    1
    61    30    58    1
    62    30    59    1
    63    31    60    1
    64    31    61    1
    65    34    62    1
    66    35    63    1
    67    36    64    1
    68    36    65    1
