#REMARK Cluster   4 of Poses:  1 Score: -8.88 kcal/mol
@<TRIPOS>MOLECULE
*****
 65 68 0 0 0
SMALL
GASTEIGER

@<TRIPOS>ATOM
      1 C1          5.0640   -4.8070    4.1580 C.ar      1    UNL1    -0.0449
      2 C2          4.6860   -3.7150    4.9480 C.ar      1    UNL1    -0.0334
      3 C3          5.2170   -3.6080    6.2450 C.ar      1    UNL1     0.0895
      4 C4          6.0740   -4.5970    6.7160 C.ar      1    UNL1     0.0673
      5 C5          6.4540   -5.7080    5.9670 C.ar      1    UNL1    -0.0215
      6 C6          5.9330   -5.7730    4.6690 C.ar      1    UNL1     0.0629
      7 C7          6.3440   -6.8990    3.8070 C.2       1    UNL1     0.2662
      8 N8          6.9990   -7.8920    4.3270 N.2       1    UNL1    -0.2884
      9 N9          5.9990   -6.8240    2.4700 N.pl3     1    UNL1    -0.2497
     10 N10         6.4010   -4.1930    7.9840 N.ar      1    UNL1    -0.3378
     11 C11         5.7670   -2.9990    8.2290 C.ar      1    UNL1     0.1428
     12 N12         5.0360   -2.6300    7.1950 N.ar      1    UNL1    -0.2276
     13 C13         5.8990   -2.2870    9.4890 C.ar      1    UNL1     0.0595
     14 C14         5.6900   -2.9850   10.6820 C.ar      1    UNL1    -0.0439
     15 C15         5.7970   -2.3340   11.9140 C.ar      1    UNL1    -0.0372
     16 C16         6.0690   -0.9570   11.9370 C.ar      1    UNL1    -0.0467
     17 C17         6.3060   -0.2240   10.7550 C.ar      1    UNL1     0.0281
     18 C18         6.2310   -0.9240    9.5370 C.ar      1    UNL1     0.1353
     19 O19         6.4800   -0.2660    8.3600 O.3       1    UNL1    -0.5054
     20 C20         6.6780    1.2060   10.8420 C.ar      1    UNL1     0.0289
     21 C21         5.7980    2.1120   11.4620 C.ar      1    UNL1    -0.0240
     22 C22         6.0910    3.4800   11.5200 C.ar      1    UNL1     0.1058
     23 C23         7.2860    3.9780   11.0160 C.ar      1    UNL1    -0.0319
     24 C24         8.1820    3.0960   10.4160 C.ar      1    UNL1    -0.0177
     25 C25         7.8670    1.7350   10.3130 C.ar      1    UNL1     0.1248
     26 O26         8.7830    0.9240    9.6990 O.3       1    UNL1    -0.5062
     27 S27         4.8560    4.5290   12.2210 S.O2      1    UNL1     0.0560
     28 O28         5.5130    5.2770   13.2760 O.2       1    UNL1    -0.1533
     29 O29         4.2140    5.1990   11.1080 O.2       1    UNL1    -0.1533
     30 N30         3.7390    3.4550   12.9370 N.3       1    UNL1    -0.2035
     31 C31         5.6330   -3.1090   13.1970 C.3       1    UNL1     0.0491
     32 C32         6.4330   -4.4000   13.2300 C.2       1    UNL1     0.2178
     33 O33         7.5940   -4.4880   13.6210 O.2       1    UNL1    -0.2754
     34 N34         5.6850   -5.4770   12.7870 N.am      1    UNL1    -0.3067
     35 C35         5.8790   -6.0620   11.4670 C.3       1    UNL1     0.0676
     36 C36         6.7380   -7.3320   11.5050 C.3       1    UNL1     0.0105
     37 C37         8.1450   -7.1170   10.9940 C.2       1    UNL1     0.0439
     38 O38         8.6990   -6.0390   10.8390 O.co2     1    UNL1    -0.5497
     39 O39         8.7020   -8.3040   10.6380 O.co2     1    UNL1    -0.5497
     40 C40         4.4880   -6.3620   10.9400 C.2       1    UNL1     0.0623
     41 O41         4.0500   -5.9260    9.8830 O.co2     1    UNL1    -0.5479
     42 O42         3.7860   -7.2000   11.7460 O.co2     1    UNL1    -0.5479
     43 H1          4.7000   -4.8980    3.1970 H         1    UNL1     0.0627
     44 H2          4.0320   -3.0040    4.5860 H         1    UNL1     0.0640
     45 H3          7.0790   -6.4370    6.3440 H         1    UNL1     0.0647
     46 H4          7.2160   -7.8900    5.2870 H         1    UNL1     0.3009
     47 H5          7.2780   -8.6480    3.7610 H         1    UNL1     0.3009
     48 H6          5.2710   -7.3840    2.1170 H         1    UNL1     0.2883
     49 H7          6.4820   -6.2090    1.8710 H         1    UNL1     0.2883
     50 H8          6.9880   -4.6750    8.6100 H         1    UNL1     0.1674
     51 H9          5.4550   -3.9890   10.6520 H         1    UNL1     0.0629
     52 H10         6.0950   -0.4660   12.8440 H         1    UNL1     0.0628
     53 H11         5.8020   -0.1800    7.7180 H         1    UNL1     0.2922
     54 H12         4.9220    1.7620   11.8810 H         1    UNL1     0.0644
     55 H13         7.5060    4.9840   11.0860 H         1    UNL1     0.0638
     56 H14         9.0790    3.4460   10.0450 H         1    UNL1     0.0655
     57 H15         9.2400    1.2250    8.9380 H         1    UNL1     0.2922
     58 H16         2.9770    3.2710   12.2840 H         1    UNL1     0.1442
     59 H17         3.3630    3.8730   13.7890 H         1    UNL1     0.1442
     60 H18         4.5970   -3.3500   13.3180 H         1    UNL1     0.0407
     61 H19         6.0000   -2.4900   13.9890 H         1    UNL1     0.0407
     62 H20         5.0000   -5.8590   13.3820 H         1    UNL1     0.1493
     63 H21         6.4100   -5.3840   10.8320 H         1    UNL1     0.0564
     64 H22         6.2680   -8.0800   10.9010 H         1    UNL1     0.0346
     65 H23         6.8160   -7.6320   12.5290 H         1    UNL1     0.0346
@<TRIPOS>UNITY_ATOM_ATTR
8 1
charge 1
39 1
charge -1
42 1
charge -1
@<TRIPOS>BOND
     1     1     2   ar
     2     1     6   ar
     3     2     3   ar
     4     3     4   ar
     5     3    12   ar
     6     4     5   ar
     7     4    10   ar
     8     5     6   ar
     9     6     7    1
    10     7     8    2
    11     7     9    1
    12    10    11   ar
    13    11    12   ar
    14    11    13    1
    15    13    14   ar
    16    13    18   ar
    17    14    15   ar
    18    15    16   ar
    19    15    31    1
    20    16    17   ar
    21    17    18   ar
    22    17    20    1
    23    18    19    1
    24    20    21   ar
    25    20    25   ar
    26    21    22   ar
    27    22    23   ar
    28    22    27    1
    29    23    24   ar
    30    24    25   ar
    31    25    26    1
    32    27    28    2
    33    27    29    2
    34    27    30    1
    35    31    32    1
    36    32    33    2
    37    32    34   am
    38    34    35    1
    39    35    36    1
    40    35    40    1
    41    36    37    1
    42    37    38   ar
    43    37    39   ar
    44    40    41   ar
    45    40    42   ar
    46     1    43    1
    47     2    44    1
    48     5    45    1
    49     8    46    1
    50     8    47    1
    51     9    48    1
    52     9    49    1
    53    10    50    1
    54    14    51    1
    55    16    52    1
    56    19    53    1
    57    21    54    1
    58    23    55    1
    59    24    56    1
    60    26    57    1
    61    30    58    1
    62    30    59    1
    63    31    60    1
    64    31    61    1
    65    34    62    1
    66    35    63    1
    67    36    64    1
    68    36    65    1
