#REMARK Cluster  11 of Poses:  1 Score: -7.64 kcal/mol
@<TRIPOS>MOLECULE
216210
 60 63 0 0 0
SMALL
GASTEIGER

@<TRIPOS>ATOM
      1 O1          1.2740   -7.8390   12.2320 O.2       1    UNL1    -0.2696
      2 O2          1.8090   -5.2320   16.6620 O.co2     1    UNL1    -0.5498
      3 O3          2.7210   -6.7650   18.0660 O.co2     1    UNL1    -0.5498
      4 N4          7.3990   -8.2830   11.2400 N.ar      1    UNL1    -0.3294
      5 N5          6.1150   -6.5770   10.6220 N.ar      1    UNL1    -0.2307
      6 N6          1.8000   -8.5900   14.4090 N.am      1    UNL1    -0.2518
      7 N7          8.3200   -6.5410    8.3610 N.pl3     1    UNL1    -0.3367
      8 N8         -0.4070   -9.2770   13.7270 N.ar      1    UNL1    -0.2399
      9 N9          3.8060   -2.5070    6.1150 N.pl3     1    UNL1    -0.2497
     10 N10         5.7330   -1.7450    5.0350 N.2       1    UNL1    -0.2884
     11 C11         6.1410   -8.4300   11.7770 C.ar      1    UNL1     0.0686
     12 C12         7.3490   -7.1630   10.5540 C.ar      1    UNL1     0.1277
     13 C13         5.3170   -7.3720   11.4040 C.ar      1    UNL1     0.0901
     14 C14         8.5020   -6.6220    9.8050 C.3       1    UNL1     0.0674
     15 C15         3.4850   -8.2790   12.6210 C.ar      1    UNL1     0.0394
     16 C16         3.9850   -7.2600   11.8040 C.ar      1    UNL1    -0.0221
     17 C17         5.6230   -9.4450   12.5990 C.ar      1    UNL1    -0.0353
     18 C18         4.2880   -9.3530   13.0130 C.ar      1    UNL1    -0.0475
     19 C19         8.5150   -9.1830   11.4090 C.3       1    UNL1     0.0136
     20 C20         2.1030   -8.2180   13.0720 C.2       1    UNL1     0.2520
     21 C21         2.7880   -8.3950   15.4820 C.3       1    UNL1     0.0265
     22 C22         7.5500   -5.5750    7.7500 C.ar      1    UNL1     0.0275
     23 C23         3.1440   -6.9270   15.6710 C.3       1    UNL1     0.0031
     24 C24         0.5060   -9.1680   14.7190 C.ar      1    UNL1     0.1277
     25 C25         7.6970   -4.2350    8.1100 C.ar      1    UNL1    -0.0400
     26 C26         6.6220   -5.9370    6.7740 C.ar      1    UNL1    -0.0400
     27 C27         0.2840   -9.5750   16.0250 C.ar      1    UNL1    -0.0213
     28 C28         6.9170   -3.2580    7.4920 C.ar      1    UNL1    -0.0453
     29 C29         5.8410   -4.9600    6.1570 C.ar      1    UNL1    -0.0453
     30 C30         5.9890   -3.6200    6.5160 C.ar      1    UNL1     0.0609
     31 C31         2.5560   -6.3340   16.9340 C.2       1    UNL1     0.0432
     32 C32        -0.9530  -10.1290   16.3330 C.ar      1    UNL1    -0.0571
     33 C33        -1.5980   -9.8210   14.0640 C.ar      1    UNL1     0.0297
     34 C34        -1.9180  -10.2580   15.3400 C.ar      1    UNL1    -0.0435
     35 C35         5.1750   -2.6010    5.8720 C.2       1    UNL1     0.2662
     36 H1          8.7690   -7.2080    7.7950 H         1    UNL1     0.1465
     37 H2          3.4550   -1.7800    6.6800 H         1    UNL1     0.2883
     38 H3          3.1890   -3.1660    5.7220 H         1    UNL1     0.2883
     39 H4          5.1830   -1.0540    4.5980 H         1    UNL1     0.3009
     40 H5          6.6980   -1.7970    4.8480 H         1    UNL1     0.3009
     41 H6          8.7010   -5.6360   10.1700 H         1    UNL1     0.0541
     42 H7          9.3070   -7.3080    9.9650 H         1    UNL1     0.0541
     43 H8          3.3970   -6.4640   11.5110 H         1    UNL1     0.0647
     44 H9          6.2120  -10.2400   12.8910 H         1    UNL1     0.0639
     45 H10         3.8910  -10.0900   13.6170 H         1    UNL1     0.0626
     46 H11         8.2210  -10.0030   12.0290 H         1    UNL1     0.0456
     47 H12         9.3270   -8.6610   11.8700 H         1    UNL1     0.0456
     48 H13         8.8240   -9.5510   10.4530 H         1    UNL1     0.0456
     49 H14         3.6770   -8.9370   15.2360 H         1    UNL1     0.0473
     50 H15         2.3570   -8.7500   16.3950 H         1    UNL1     0.0473
     51 H16         2.7760   -6.3750   14.8320 H         1    UNL1     0.0340
     52 H17         4.2090   -6.8630   15.7540 H         1    UNL1     0.0340
     53 H18         8.3840   -3.9670    8.8320 H         1    UNL1     0.0636
     54 H19         6.5130   -6.9280    6.5080 H         1    UNL1     0.0636
     55 H20         1.0140   -9.4700   16.7470 H         1    UNL1     0.0652
     56 H21         7.0260   -2.2660    7.7580 H         1    UNL1     0.0627
     57 H22         5.1550   -5.2280    5.4340 H         1    UNL1     0.0627
     58 H23        -1.1550  -10.4440   17.2950 H         1    UNL1     0.0619
     59 H24        -2.3130   -9.9160   13.3260 H         1    UNL1     0.0830
     60 H25        -2.8430  -10.6670   15.5460 H         1    UNL1     0.0633
@<TRIPOS>UNITY_ATOM_ATTR
2 1
charge -1
10 1
charge 1
@<TRIPOS>BOND
     1     1    20    2
     2     2    31   ar
     3     3    31   ar
     4     4    11   ar
     5     4    12   ar
     6     4    19    1
     7     5    12   ar
     8     5    13   ar
     9     6    20   am
    10     6    21    1
    11     6    24    1
    12     7    14    1
    13     7    22    1
    14     8    24   ar
    15     8    33   ar
    16     9    35    1
    17    10    35    2
    18    11    13   ar
    19    11    17   ar
    20    12    14    1
    21    13    16   ar
    22    15    16   ar
    23    15    18   ar
    24    15    20    1
    25    17    18   ar
    26    21    23    1
    27    22    25   ar
    28    22    26   ar
    29    23    31    1
    30    24    27   ar
    31    25    28   ar
    32    26    29   ar
    33    27    32   ar
    34    28    30   ar
    35    29    30   ar
    36    30    35    1
    37    32    34   ar
    38    33    34   ar
    39     7    36    1
    40     9    37    1
    41     9    38    1
    42    10    39    1
    43    10    40    1
    44    14    41    1
    45    14    42    1
    46    16    43    1
    47    17    44    1
    48    18    45    1
    49    19    46    1
    50    19    47    1
    51    19    48    1
    52    21    49    1
    53    21    50    1
    54    23    51    1
    55    23    52    1
    56    25    53    1
    57    26    54    1
    58    27    55    1
    59    28    56    1
    60    29    57    1
    61    32    58    1
    62    33    59    1
    63    34    60    1
