#REMARK Cluster   1 of Poses:  6 Score: -7.56 kcal/mol
@<TRIPOS>MOLECULE
5284571
 39 40 0 0 0
SMALL
GASTEIGER

@<TRIPOS>ATOM
      1 O1          6.5820    1.3500    7.8610 O.3       1    UNL1    -0.5062
      2 N2          4.1890    3.4680   12.3600 N.pl3     1    UNL1    -0.2497
      3 N3          7.1960   -7.3010    4.3830 N.pl3     1    UNL1    -0.2497
      4 N4          6.3110    3.0200   13.2320 N.2       1    UNL1    -0.2884
      5 N5          5.3250   -6.5180    3.2210 N.2       1    UNL1    -0.2884
      6 C6          6.0310   -0.3210    9.4980 C.ar      1    UNL1     0.0165
      7 C7          5.5130   -3.3130    7.0990 C.ar      1    UNL1    -0.0250
      8 C8          6.2040    1.0030    9.1250 C.ar      1    UNL1     0.1248
      9 C9          6.2520   -1.4060    8.5250 C.2       1    UNL1    -0.0506
     10 C10         5.6020    1.6860   11.3630 C.ar      1    UNL1     0.0643
     11 C11         5.6460   -0.6600   10.7860 C.ar      1    UNL1    -0.0503
     12 C12         5.2990   -2.2540    8.0730 C.2       1    UNL1    -0.0539
     13 C13         5.9880    2.0130   10.0630 C.ar      1    UNL1    -0.0049
     14 C14         5.4300    0.3500   11.7240 C.ar      1    UNL1    -0.0462
     15 C15         6.4250   -4.3330    7.3670 C.ar      1    UNL1    -0.0538
     16 C16         4.8060   -3.3080    5.8960 C.ar      1    UNL1    -0.0538
     17 C17         5.9250   -5.3430    5.2300 C.ar      1    UNL1     0.0608
     18 C18         6.6310   -5.3480    6.4320 C.ar      1    UNL1    -0.0465
     19 C19         5.0120   -4.3230    4.9620 C.ar      1    UNL1    -0.0465
     20 C20         5.3760    2.7380   12.3410 C.2       1    UNL1     0.2663
     21 C21         6.1400   -6.4010    4.2550 C.2       1    UNL1     0.2662
     22 H1          5.9710    1.2830    7.1540 H         1    UNL1     0.2922
     23 H2          3.3540    3.0420   12.6610 H         1    UNL1     0.2883
     24 H3          4.1850    4.4100   12.0730 H         1    UNL1     0.2883
     25 H4          7.5220   -7.7920    3.5950 H         1    UNL1     0.2883
     26 H5          7.6160   -7.4450    5.2620 H         1    UNL1     0.2883
     27 H6          6.1600    3.7320   13.8950 H         1    UNL1     0.3009
     28 H7          7.1570    2.5180   13.2320 H         1    UNL1     0.3009
     29 H8          5.4690   -7.2340    2.5610 H         1    UNL1     0.3009
     30 H9          4.5750   -5.8910    3.1120 H         1    UNL1     0.3009
     31 H10         7.2100   -1.5280    8.1600 H         1    UNL1     0.0625
     32 H11         5.5210   -1.6500   11.0480 H         1    UNL1     0.0625
     33 H12         4.3450   -2.1410    8.4490 H         1    UNL1     0.0624
     34 H13         6.1150    3.0010    9.7950 H         1    UNL1     0.0663
     35 H14         5.1440    0.1080   12.6860 H         1    UNL1     0.0626
     36 H15         6.9480   -4.3370    8.2570 H         1    UNL1     0.0624
     37 H16         4.1310   -2.5530    5.6980 H         1    UNL1     0.0624
     38 H17         7.3060   -6.1030    6.6310 H         1    UNL1     0.0626
     39 H18         4.4890   -4.3190    4.0720 H         1    UNL1     0.0626
@<TRIPOS>UNITY_ATOM_ATTR
4 1
charge 1
5 1
charge 1
@<TRIPOS>BOND
     1     1     8    1
     2     2    20    1
     3     3    21    1
     4     4    20    2
     5     5    21    2
     6     6     8   ar
     7     6     9    1
     8     6    11   ar
     9     7    12    1
    10     7    15   ar
    11     7    16   ar
    12     8    13   ar
    13     9    12    2
    14    10    13   ar
    15    10    14   ar
    16    10    20    1
    17    11    14   ar
    18    15    18   ar
    19    16    19   ar
    20    17    18   ar
    21    17    19   ar
    22    17    21    1
    23     1    22    1
    24     2    23    1
    25     2    24    1
    26     3    25    1
    27     3    26    1
    28     4    27    1
    29     4    28    1
    30     5    29    1
    31     5    30    1
    32     9    31    1
    33    11    32    1
    34    12    33    1
    35    13    34    1
    36    14    35    1
    37    15    36    1
    38    16    37    1
    39    18    38    1
    40    19    39    1
