#REMARK Cluster   8 of Poses:  1 Score: -7.90 kcal/mol
@<TRIPOS>MOLECULE
216210
 60 63 0 0 0
SMALL
GASTEIGER

@<TRIPOS>ATOM
      1 O1          1.6190   -6.4190   14.2060 O.2       1    UNL1    -0.2696
      2 O2          6.7420   -7.1280   11.9310 O.co2     1    UNL1    -0.5498
      3 O3          7.0610   -9.2560   11.2060 O.co2     1    UNL1    -0.5498
      4 N4          5.4250   -2.9120   10.7220 N.ar      1    UNL1    -0.3294
      5 N5          3.4770   -3.5840    9.8880 N.ar      1    UNL1    -0.2307
      6 N6          2.9940   -8.1880   13.4590 N.am      1    UNL1    -0.2518
      7 N7          5.9110   -2.1100    7.7680 N.pl3     1    UNL1    -0.3367
      8 N8          1.0700   -9.3260   12.5610 N.ar      1    UNL1    -0.2399
      9 N9          5.4310   -6.4470    3.0070 N.pl3     1    UNL1    -0.2497
     10 N10         6.7690   -7.5640    4.5630 N.2       1    UNL1    -0.2884
     11 C11         4.8740   -3.8690   11.5420 C.ar      1    UNL1     0.0686
     12 C12         4.5620   -2.7650    9.7410 C.ar      1    UNL1     0.1277
     13 C13         3.6510   -4.3060   11.0410 C.ar      1    UNL1     0.0901
     14 C14         4.7650   -1.8220    8.6220 C.3       1    UNL1     0.0674
     15 C15         3.3660   -5.8140   12.8590 C.ar      1    UNL1     0.0394
     16 C16         2.8670   -5.2760   11.6680 C.ar      1    UNL1    -0.0221
     17 C17         5.3590   -4.4200   12.7400 C.ar      1    UNL1    -0.0353
     18 C18         4.5890   -5.3950   13.3880 C.ar      1    UNL1    -0.0475
     19 C19         6.6830   -2.2340   10.9190 C.3       1    UNL1     0.0136
     20 C20         2.5940   -6.8280   13.5610 C.2       1    UNL1     0.2520
     21 C21         4.4110   -8.5380   13.2720 C.3       1    UNL1     0.0265
     22 C22         5.9560   -3.1810    6.9010 C.ar      1    UNL1     0.0275
     23 C23         4.8180   -8.5130   11.8040 C.3       1    UNL1     0.0031
     24 C24         1.9980   -9.2390   13.5400 C.ar      1    UNL1     0.1277
     25 C25         5.7240   -2.9860    5.5400 C.ar      1    UNL1    -0.0400
     26 C26         6.2330   -4.4590    7.3860 C.ar      1    UNL1    -0.0400
     27 C27         2.0600  -10.0960   14.6280 C.ar      1    UNL1    -0.0213
     28 C28         5.7690   -4.0700    4.6630 C.ar      1    UNL1    -0.0453
     29 C29         6.2780   -5.5430    6.5090 C.ar      1    UNL1    -0.0453
     30 C30         6.0460   -5.3480    5.1470 C.ar      1    UNL1     0.0609
     31 C31         6.3130   -8.3760   11.6080 C.2       1    UNL1     0.0432
     32 C32         1.1100  -11.1070   14.7150 C.ar      1    UNL1    -0.0571
     33 C33         0.1620  -10.3210   12.6800 C.ar      1    UNL1     0.0297
     34 C34         0.1390  -11.2280   13.7270 C.ar      1    UNL1    -0.0435
     35 C35         6.0930   -6.4780    4.2330 C.2       1    UNL1     0.2662
     36 H1          6.6900   -1.5110    7.8130 H         1    UNL1     0.1465
     37 H2          4.4480   -6.4030    2.9790 H         1    UNL1     0.2883
     38 H3          5.9470   -6.4680    2.1690 H         1    UNL1     0.2883
     39 H4          6.8020   -8.3300    3.9460 H         1    UNL1     0.3009
     40 H5          7.2400   -7.6070    5.4270 H         1    UNL1     0.3009
     41 H6          3.8860   -1.8380    8.0130 H         1    UNL1     0.0541
     42 H7          4.9590   -0.8690    9.0690 H         1    UNL1     0.0541
     43 H8          1.9640   -5.5810   11.2730 H         1    UNL1     0.0647
     44 H9          6.2620   -4.1140   13.1340 H         1    UNL1     0.0639
     45 H10         4.9310   -5.8100   14.2680 H         1    UNL1     0.0626
     46 H11         7.1420   -2.5870   11.8190 H         1    UNL1     0.0456
     47 H12         6.5130   -1.1810   10.9960 H         1    UNL1     0.0456
     48 H13         7.3290   -2.4310   10.0890 H         1    UNL1     0.0456
     49 H14         4.5780   -9.5210   13.6590 H         1    UNL1     0.0473
     50 H15         5.0020   -7.8120   13.7900 H         1    UNL1     0.0473
     51 H16         4.3350   -7.6840   11.3310 H         1    UNL1     0.0340
     52 H17         4.5220   -9.4460   11.3740 H         1    UNL1     0.0340
     53 H18         5.5190   -2.0410    5.1810 H         1    UNL1     0.0636
     54 H19         6.4050   -4.6030    8.3930 H         1    UNL1     0.0636
     55 H20         2.7900   -9.9870   15.3500 H         1    UNL1     0.0652
     56 H21         5.5970   -3.9260    3.6560 H         1    UNL1     0.0627
     57 H22         6.4830   -6.4890    6.8680 H         1    UNL1     0.0627
     58 H23         1.1240  -11.7640   15.5110 H         1    UNL1     0.0619
     59 H24        -0.5580  -10.4100   11.9460 H         1    UNL1     0.0830
     60 H25        -0.5760  -11.9710   13.7720 H         1    UNL1     0.0633
@<TRIPOS>UNITY_ATOM_ATTR
2 1
charge -1
10 1
charge 1
@<TRIPOS>BOND
     1     1    20    2
     2     2    31   ar
     3     3    31   ar
     4     4    11   ar
     5     4    12   ar
     6     4    19    1
     7     5    12   ar
     8     5    13   ar
     9     6    20   am
    10     6    21    1
    11     6    24    1
    12     7    14    1
    13     7    22    1
    14     8    24   ar
    15     8    33   ar
    16     9    35    1
    17    10    35    2
    18    11    13   ar
    19    11    17   ar
    20    12    14    1
    21    13    16   ar
    22    15    16   ar
    23    15    18   ar
    24    15    20    1
    25    17    18   ar
    26    21    23    1
    27    22    25   ar
    28    22    26   ar
    29    23    31    1
    30    24    27   ar
    31    25    28   ar
    32    26    29   ar
    33    27    32   ar
    34    28    30   ar
    35    29    30   ar
    36    30    35    1
    37    32    34   ar
    38    33    34   ar
    39     7    36    1
    40     9    37    1
    41     9    38    1
    42    10    39    1
    43    10    40    1
    44    14    41    1
    45    14    42    1
    46    16    43    1
    47    17    44    1
    48    18    45    1
    49    19    46    1
    50    19    47    1
    51    19    48    1
    52    21    49    1
    53    21    50    1
    54    23    51    1
    55    23    52    1
    56    25    53    1
    57    26    54    1
    58    27    55    1
    59    28    56    1
    60    29    57    1
    61    32    58    1
    62    33    59    1
    63    34    60    1
