#REMARK Cluster   1 of Poses:  1 Score: -9.51 kcal/mol
@<TRIPOS>MOLECULE
216210
 60 63 0 0 0
SMALL
GASTEIGER

@<TRIPOS>ATOM
      1 O1          1.8850   -6.7940   14.0030 O.2       1    UNL1    -0.2696
      2 O2          3.9930  -12.6630   11.4670 O.co2     1    UNL1    -0.5498
      3 O3          1.8840  -11.9480   11.0220 O.co2     1    UNL1    -0.5498
      4 N4          6.4470   -4.0790   10.7080 N.ar      1    UNL1    -0.3294
      5 N5          4.3590   -3.7230   10.0350 N.ar      1    UNL1    -0.2307
      6 N6          2.0320   -8.4410   12.3170 N.am      1    UNL1    -0.2518
      7 N7          5.5980   -2.2850    7.6920 N.pl3     1    UNL1    -0.3367
      8 N8         -0.2910   -8.2050   11.7200 N.ar      1    UNL1    -0.2399
      9 N9          6.7440   -7.6990    4.3630 N.pl3     1    UNL1    -0.2497
     10 N10         5.5000   -6.4350    2.8420 N.2       1    UNL1    -0.2884
     11 C11         5.5940   -4.9380   11.3640 C.ar      1    UNL1     0.0686
     12 C12         5.6740   -3.3660    9.9200 C.ar      1    UNL1     0.1277
     13 C13         4.2780   -4.7340   10.9580 C.ar      1    UNL1     0.0901
     14 C14         6.1880   -2.3100    9.0240 C.3       1    UNL1     0.0674
     15 C15         3.4930   -6.4440   12.4130 C.ar      1    UNL1     0.0394
     16 C16         3.2000   -5.4650   11.4580 C.ar      1    UNL1    -0.0221
     17 C17         5.8700   -5.9250   12.3250 C.ar      1    UNL1    -0.0353
     18 C18         4.8030   -6.6720   12.8410 C.ar      1    UNL1    -0.0475
     19 C19         7.8790   -4.0020   10.8700 C.3       1    UNL1     0.0136
     20 C20         2.4100   -7.2390   12.9730 C.2       1    UNL1     0.2520
     21 C21         3.0230   -9.2270   11.5640 C.3       1    UNL1     0.0265
     22 C22         5.7090   -3.3270    6.7970 C.ar      1    UNL1     0.0275
     23 C23         3.3990  -10.5150   12.2850 C.3       1    UNL1     0.0031
     24 C24         0.6570   -8.8990   12.3900 C.ar      1    UNL1     0.1277
     25 C25         6.6690   -4.3190    6.9970 C.ar      1    UNL1    -0.0400
     26 C26         4.8620   -3.3900    5.6910 C.ar      1    UNL1    -0.0400
     27 C27         0.3990  -10.0290   13.1500 C.ar      1    UNL1    -0.0213
     28 C28         6.7820   -5.3730    6.0900 C.ar      1    UNL1    -0.0453
     29 C29         4.9750   -4.4430    4.7840 C.ar      1    UNL1    -0.0453
     30 C30         5.9350   -5.4350    4.9840 C.ar      1    UNL1     0.0609
     31 C31         2.9810  -11.7580   11.5290 C.2       1    UNL1     0.0432
     32 C32        -0.9160  -10.4750   13.2270 C.ar      1    UNL1    -0.0571
     33 C33        -1.5570   -8.6690   11.8180 C.ar      1    UNL1     0.0297
     34 C34        -1.9180   -9.7880   12.5510 C.ar      1    UNL1    -0.0435
     35 C35         6.0520   -6.5340    4.0380 C.2       1    UNL1     0.2662
     36 H1          5.0950   -1.4850    7.4180 H         1    UNL1     0.1465
     37 H2          7.1430   -7.8020    5.2580 H         1    UNL1     0.2883
     38 H3          6.8340   -8.4200    3.6990 H         1    UNL1     0.2883
     39 H4          5.5790   -7.1780    2.2010 H         1    UNL1     0.3009
     40 H5          5.0100   -5.6190    2.5920 H         1    UNL1     0.3009
     41 H6          6.0020   -1.3640    9.4870 H         1    UNL1     0.0541
     42 H7          7.2280   -2.5200    8.8850 H         1    UNL1     0.0541
     43 H8          2.2340   -5.2920   11.1380 H         1    UNL1     0.0647
     44 H9          6.8360   -6.0970   12.6430 H         1    UNL1     0.0639
     45 H10         4.9880   -7.4010   13.5470 H         1    UNL1     0.0626
     46 H11         8.1960   -4.7250   11.5920 H         1    UNL1     0.0456
     47 H12         8.1480   -3.0220   11.2050 H         1    UNL1     0.0456
     48 H13         8.3550   -4.2020    9.9330 H         1    UNL1     0.0456
     49 H14         3.9050   -8.6350   11.4330 H         1    UNL1     0.0473
     50 H15         2.5890   -9.4900   10.6230 H         1    UNL1     0.0473
     51 H16         2.9230  -10.5220   13.2430 H         1    UNL1     0.0340
     52 H17         4.4660  -10.5350   12.3690 H         1    UNL1     0.0340
     53 H18         7.2960   -4.2730    7.8150 H         1    UNL1     0.0636
     54 H19         4.1510   -2.6560    5.5430 H         1    UNL1     0.0636
     55 H20         1.1590  -10.5230   13.6430 H         1    UNL1     0.0652
     56 H21         7.4920   -6.1070    6.2380 H         1    UNL1     0.0627
     57 H22         4.3480   -4.4890    3.9650 H         1    UNL1     0.0627
     58 H23        -1.1470  -11.3130   13.7830 H         1    UNL1     0.0619
     59 H24        -2.3000   -8.1580   11.3170 H         1    UNL1     0.0830
     60 H25        -2.9000  -10.1010   12.5940 H         1    UNL1     0.0633
@<TRIPOS>UNITY_ATOM_ATTR
2 1
charge -1
10 1
charge 1
@<TRIPOS>BOND
     1     1    20    2
     2     2    31   ar
     3     3    31   ar
     4     4    11   ar
     5     4    12   ar
     6     4    19    1
     7     5    12   ar
     8     5    13   ar
     9     6    20   am
    10     6    21    1
    11     6    24    1
    12     7    14    1
    13     7    22    1
    14     8    24   ar
    15     8    33   ar
    16     9    35    1
    17    10    35    2
    18    11    13   ar
    19    11    17   ar
    20    12    14    1
    21    13    16   ar
    22    15    16   ar
    23    15    18   ar
    24    15    20    1
    25    17    18   ar
    26    21    23    1
    27    22    25   ar
    28    22    26   ar
    29    23    31    1
    30    24    27   ar
    31    25    28   ar
    32    26    29   ar
    33    27    32   ar
    34    28    30   ar
    35    29    30   ar
    36    30    35    1
    37    32    34   ar
    38    33    34   ar
    39     7    36    1
    40     9    37    1
    41     9    38    1
    42    10    39    1
    43    10    40    1
    44    14    41    1
    45    14    42    1
    46    16    43    1
    47    17    44    1
    48    18    45    1
    49    19    46    1
    50    19    47    1
    51    19    48    1
    52    21    49    1
    53    21    50    1
    54    23    51    1
    55    23    52    1
    56    25    53    1
    57    26    54    1
    58    27    55    1
    59    28    56    1
    60    29    57    1
    61    32    58    1
    62    33    59    1
    63    34    60    1
