#REMARK Cluster   6 of Poses:  1 Score: -8.14 kcal/mol
@<TRIPOS>MOLECULE
216210
 60 63 0 0 0
SMALL
GASTEIGER

@<TRIPOS>ATOM
      1 O1          7.9250    5.3000    9.5700 O.2       1    UNL1    -0.2696
      2 O2         12.9700    1.2930    9.0010 O.co2     1    UNL1    -0.5498
      3 O3         13.3700    3.4530    8.4270 O.co2     1    UNL1    -0.5498
      4 N4          5.5600   -0.3970   10.5890 N.ar      1    UNL1    -0.3294
      5 N5          6.7680   -0.1440    8.7400 N.ar      1    UNL1    -0.2307
      6 N6          9.8990    4.3160   10.4150 N.am      1    UNL1    -0.2518
      7 N7          4.9230   -2.3100    7.6320 N.pl3     1    UNL1    -0.3367
      8 N8          9.7860    6.4350   11.5560 N.ar      1    UNL1    -0.2399
      9 N9          7.1970   -7.3510    4.2980 N.pl3     1    UNL1    -0.2497
     10 N10         5.5490   -6.5120    2.8680 N.2       1    UNL1    -0.2884
     11 C11         6.2180    0.8110   10.6250 C.ar      1    UNL1     0.0686
     12 C12         5.9130   -0.9430    9.4460 C.ar      1    UNL1     0.1277
     13 C13         6.9830    0.9930    9.4760 C.ar      1    UNL1     0.0901
     14 C14         5.4260   -2.2640    9.0000 C.3       1    UNL1     0.0674
     15 C15         7.7400    3.1180   10.2320 C.ar      1    UNL1     0.0394
     16 C16         7.7570    2.1300    9.2420 C.ar      1    UNL1    -0.0221
     17 C17         6.2140    1.8130   11.6100 C.ar      1    UNL1    -0.0353
     18 C18         6.9830    2.9640   11.3960 C.ar      1    UNL1    -0.0475
     19 C19         4.6780   -0.9240   11.6010 C.3       1    UNL1     0.0136
     20 C20         8.5280    4.3270   10.0460 C.2       1    UNL1     0.2520
     21 C21        10.6850    3.0740   10.3390 C.3       1    UNL1     0.0265
     22 C22         5.2350   -3.3180    6.7460 C.ar      1    UNL1     0.0275
     23 C23        11.0900    2.7390    8.9100 C.3       1    UNL1     0.0031
     24 C24        10.5320    5.5400   10.8700 C.ar      1    UNL1     0.1277
     25 C25         6.1860   -4.2790    7.0890 C.ar      1    UNL1    -0.0400
     26 C26         4.6000   -3.3770    5.5050 C.ar      1    UNL1    -0.0400
     27 C27        11.8720    5.7170   10.5690 C.ar      1    UNL1    -0.0213
     28 C28         6.5030   -5.2980    6.1920 C.ar      1    UNL1    -0.0453
     29 C29         4.9170   -4.3970    4.6080 C.ar      1    UNL1    -0.0453
     30 C30         5.8680   -5.3570    4.9510 C.ar      1    UNL1     0.0609
     31 C31        12.5850    2.5710    8.7440 C.2       1    UNL1     0.0432
     32 C32        12.4880    6.8870   11.0000 C.ar      1    UNL1    -0.0571
     33 C33        10.4180    7.5600   11.9590 C.ar      1    UNL1     0.0297
     34 C34        11.7540    7.8310   11.7090 C.ar      1    UNL1    -0.0435
     35 C35         6.1990   -6.4200    4.0150 C.2       1    UNL1     0.2662
     36 H1          4.3310   -1.5850    7.3270 H         1    UNL1     0.1465
     37 H2          7.4220   -7.5630    5.2320 H         1    UNL1     0.2883
     38 H3          7.6760   -7.7970    3.5630 H         1    UNL1     0.2883
     39 H4          5.7720   -7.2310    2.2330 H         1    UNL1     0.3009
     40 H5          4.8430   -5.8620    2.6480 H         1    UNL1     0.3009
     41 H6          6.2360   -2.9590    9.0780 H         1    UNL1     0.0541
     42 H7          4.5950   -2.5040    9.6300 H         1    UNL1     0.0541
     43 H8          8.3140    2.2380    8.3800 H         1    UNL1     0.0647
     44 H9          5.6560    1.7040   12.4710 H         1    UNL1     0.0639
     45 H10         6.9910    3.7100   12.1090 H         1    UNL1     0.0626
     46 H11         4.6040   -0.2260   12.4090 H         1    UNL1     0.0456
     47 H12         5.0670   -1.8510   11.9660 H         1    UNL1     0.0456
     48 H13         3.7080   -1.0850   11.1800 H         1    UNL1     0.0456
     49 H14        10.0960    2.2700   10.7280 H         1    UNL1     0.0473
     50 H15        11.5780    3.2130   10.9110 H         1    UNL1     0.0473
     51 H16        10.7630    3.5300    8.2680 H         1    UNL1     0.0340
     52 H17        10.6320    1.8060    8.6570 H         1    UNL1     0.0340
     53 H18         6.6560   -4.2350    8.0070 H         1    UNL1     0.0636
     54 H19         3.8960   -2.6670    5.2520 H         1    UNL1     0.0636
     55 H20        12.3980    5.0030   10.0410 H         1    UNL1     0.0652
     56 H21         7.2070   -6.0090    6.4460 H         1    UNL1     0.0627
     57 H22         4.4480   -4.4400    3.6900 H         1    UNL1     0.0627
     58 H23        13.4850    7.0540   10.7940 H         1    UNL1     0.0619
     59 H24         9.8720    8.2610   12.4850 H         1    UNL1     0.0830
     60 H25        12.1900    8.7070   12.0380 H         1    UNL1     0.0633
@<TRIPOS>UNITY_ATOM_ATTR
2 1
charge -1
10 1
charge 1
@<TRIPOS>BOND
     1     1    20    2
     2     2    31   ar
     3     3    31   ar
     4     4    11   ar
     5     4    12   ar
     6     4    19    1
     7     5    12   ar
     8     5    13   ar
     9     6    20   am
    10     6    21    1
    11     6    24    1
    12     7    14    1
    13     7    22    1
    14     8    24   ar
    15     8    33   ar
    16     9    35    1
    17    10    35    2
    18    11    13   ar
    19    11    17   ar
    20    12    14    1
    21    13    16   ar
    22    15    16   ar
    23    15    18   ar
    24    15    20    1
    25    17    18   ar
    26    21    23    1
    27    22    25   ar
    28    22    26   ar
    29    23    31    1
    30    24    27   ar
    31    25    28   ar
    32    26    29   ar
    33    27    32   ar
    34    28    30   ar
    35    29    30   ar
    36    30    35    1
    37    32    34   ar
    38    33    34   ar
    39     7    36    1
    40     9    37    1
    41     9    38    1
    42    10    39    1
    43    10    40    1
    44    14    41    1
    45    14    42    1
    46    16    43    1
    47    17    44    1
    48    18    45    1
    49    19    46    1
    50    19    47    1
    51    19    48    1
    52    21    49    1
    53    21    50    1
    54    23    51    1
    55    23    52    1
    56    25    53    1
    57    26    54    1
    58    27    55    1
    59    28    56    1
    60    29    57    1
    61    32    58    1
    62    33    59    1
    63    34    60    1
