#REMARK Cluster   4 of Poses:  2 Score: -8.26 kcal/mol
@<TRIPOS>MOLECULE
216210
 60 63 0 0 0
SMALL
GASTEIGER

@<TRIPOS>ATOM
      1 O1          8.8010    5.3950   10.2590 O.2       1    UNL1    -0.2696
      2 O2          9.5900    0.5640   12.7610 O.co2     1    UNL1    -0.5498
      3 O3          7.9020    1.1640   14.1570 O.co2     1    UNL1    -0.5498
      4 N4          5.6010    0.0900    9.5260 N.ar      1    UNL1    -0.3294
      5 N5          7.8230    0.0620    9.4830 N.ar      1    UNL1    -0.2307
      6 N6          8.3770    5.0260   12.5530 N.am      1    UNL1    -0.2518
      7 N7          5.7060   -2.2190    7.6110 N.pl3     1    UNL1    -0.3367
      8 N8          9.5950    7.1040   12.6290 N.ar      1    UNL1    -0.2399
      9 N9          5.5450   -6.5380    2.8120 N.pl3     1    UNL1    -0.2497
     10 N10         6.9160   -7.5920    4.3840 N.2       1    UNL1    -0.2884
     11 C11         6.0890    1.3010    9.9580 C.ar      1    UNL1     0.0686
     12 C12         6.6670   -0.6280    9.2500 C.ar      1    UNL1     0.1277
     13 C13         7.4810    1.3090    9.9400 C.ar      1    UNL1     0.0901
     14 C14         6.5970   -2.0150    8.7460 C.3       1    UNL1     0.0674
     15 C15         7.5480    3.5450   10.7500 C.ar      1    UNL1     0.0394
     16 C16         8.2470    2.4090   10.3280 C.ar      1    UNL1    -0.0221
     17 C17         5.4030    2.4510   10.3860 C.ar      1    UNL1    -0.0353
     18 C18         6.1510    3.5670   10.7790 C.ar      1    UNL1    -0.0475
     19 C19         4.2120   -0.2840    9.4090 C.3       1    UNL1     0.0136
     20 C20         8.2910    4.7250   11.1680 C.2       1    UNL1     0.2520
     21 C21         8.3530    3.9490   13.5560 C.3       1    UNL1     0.0265
     22 C22         5.8250   -3.2790    6.7380 C.ar      1    UNL1     0.0275
     23 C23         9.3930    2.8750   13.2680 C.3       1    UNL1     0.0031
     24 C24         8.4920    6.4070   12.9830 C.ar      1    UNL1     0.1277
     25 C25         5.6670   -3.0740    5.3670 C.ar      1    UNL1    -0.0400
     26 C26         6.1010   -4.5560    7.2250 C.ar      1    UNL1    -0.0400
     27 C27         7.4540    6.9290   13.7380 C.ar      1    UNL1    -0.0213
     28 C28         5.7860   -4.1470    4.4830 C.ar      1    UNL1    -0.0453
     29 C29         6.2200   -5.6290    6.3410 C.ar      1    UNL1    -0.0453
     30 C30         6.0630   -5.4240    4.9710 C.ar      1    UNL1     0.0609
     31 C31         8.8630    1.4710   13.4650 C.2       1    UNL1     0.0432
     32 C32         7.5540    8.2520   14.1560 C.ar      1    UNL1    -0.0571
     33 C33         9.6570    8.3860   13.0530 C.ar      1    UNL1     0.0297
     34 C34         8.6730    9.0010   13.8110 C.ar      1    UNL1    -0.0435
     35 C35         6.1870   -6.5430    4.0500 C.2       1    UNL1     0.2662
     36 H1          4.9830   -1.5670    7.4600 H         1    UNL1     0.1465
     37 H2          5.8020   -5.8790    2.1280 H         1    UNL1     0.2883
     38 H3          4.8350   -7.1930    2.6230 H         1    UNL1     0.2883
     39 H4          7.0010   -8.3510    3.7610 H         1    UNL1     0.3009
     40 H5          7.3750   -7.6160    5.2540 H         1    UNL1     0.3009
     41 H6          7.5820   -2.3100    8.4510 H         1    UNL1     0.0541
     42 H7          6.1980   -2.6030    9.5460 H         1    UNL1     0.0541
     43 H8          9.2780    2.3870   10.3040 H         1    UNL1     0.0647
     44 H9          4.3720    2.4710   10.4090 H         1    UNL1     0.0639
     45 H10         5.6630    4.4200   11.0960 H         1    UNL1     0.0626
     46 H11         3.5960    0.5350    9.7150 H         1    UNL1     0.0456
     47 H12         4.0170   -1.1300   10.0330 H         1    UNL1     0.0456
     48 H13         3.9940   -0.5330    8.3910 H         1    UNL1     0.0456
     49 H14         7.3820    3.4990   13.5550 H         1    UNL1     0.0473
     50 H15         8.5790    4.3810   14.5090 H         1    UNL1     0.0473
     51 H16        10.2250    3.0210   13.9260 H         1    UNL1     0.0340
     52 H17         9.6760    2.9700   12.2410 H         1    UNL1     0.0340
     53 H18         5.4620   -2.1290    5.0060 H         1    UNL1     0.0636
     54 H19         6.2180   -4.7070    8.2390 H         1    UNL1     0.0636
     55 H20         6.6320    6.3540   13.9830 H         1    UNL1     0.0652
     56 H21         5.6700   -3.9950    3.4690 H         1    UNL1     0.0627
     57 H22         6.4250   -6.5740    6.7020 H         1    UNL1     0.0627
     58 H23         6.8000    8.6750   14.7200 H         1    UNL1     0.0619
     59 H24        10.4880    8.9410   12.7960 H         1    UNL1     0.0830
     60 H25         8.7680    9.9840   14.1100 H         1    UNL1     0.0633
@<TRIPOS>UNITY_ATOM_ATTR
2 1
charge -1
10 1
charge 1
@<TRIPOS>BOND
     1     1    20    2
     2     2    31   ar
     3     3    31   ar
     4     4    11   ar
     5     4    12   ar
     6     4    19    1
     7     5    12   ar
     8     5    13   ar
     9     6    20   am
    10     6    21    1
    11     6    24    1
    12     7    14    1
    13     7    22    1
    14     8    24   ar
    15     8    33   ar
    16     9    35    1
    17    10    35    2
    18    11    13   ar
    19    11    17   ar
    20    12    14    1
    21    13    16   ar
    22    15    16   ar
    23    15    18   ar
    24    15    20    1
    25    17    18   ar
    26    21    23    1
    27    22    25   ar
    28    22    26   ar
    29    23    31    1
    30    24    27   ar
    31    25    28   ar
    32    26    29   ar
    33    27    32   ar
    34    28    30   ar
    35    29    30   ar
    36    30    35    1
    37    32    34   ar
    38    33    34   ar
    39     7    36    1
    40     9    37    1
    41     9    38    1
    42    10    39    1
    43    10    40    1
    44    14    41    1
    45    14    42    1
    46    16    43    1
    47    17    44    1
    48    18    45    1
    49    19    46    1
    50    19    47    1
    51    19    48    1
    52    21    49    1
    53    21    50    1
    54    23    51    1
    55    23    52    1
    56    25    53    1
    57    26    54    1
    58    27    55    1
    59    28    56    1
    60    29    57    1
    61    32    58    1
    62    33    59    1
    63    34    60    1
