#REMARK Cluster  13 of Poses:  1 Score: -7.51 kcal/mol
@<TRIPOS>MOLECULE
216210
 60 63 0 0 0
SMALL
GASTEIGER

@<TRIPOS>ATOM
      1 O1         11.8780    2.1860   11.9870 O.2       1    UNL1    -0.2696
      2 O2          6.1010    2.3840   11.2110 O.co2     1    UNL1    -0.5498
      3 O3          5.5180    3.7910   12.8950 O.co2     1    UNL1    -0.5498
      4 N4          7.2970   -1.7860   10.4080 N.ar      1    UNL1    -0.3294
      5 N5          7.2710    0.0630    9.1750 N.ar      1    UNL1    -0.2307
      6 N6         10.0640    3.6770   12.2440 N.am      1    UNL1    -0.2518
      7 N7          6.1100   -1.9080    7.0780 N.pl3     1    UNL1    -0.3367
      8 N8         10.7120    5.4330   10.7270 N.ar      1    UNL1    -0.2399
      9 N9          5.2050   -6.9950    3.2050 N.pl3     1    UNL1    -0.2497
     10 N10         7.1500   -7.5880    4.3560 N.2       1    UNL1    -0.2884
     11 C11         8.1770   -0.8660   10.9310 C.ar      1    UNL1     0.0686
     12 C12         6.7720   -1.1960    9.3570 C.ar      1    UNL1     0.1277
     13 C13         8.1790    0.3030   10.1750 C.ar      1    UNL1     0.0901
     14 C14         5.7620   -1.8390    8.4920 C.3       1    UNL1     0.0674
     15 C15         9.8050    1.3010   11.5960 C.ar      1    UNL1     0.0394
     16 C16         8.9770    1.4070   10.4730 C.ar      1    UNL1    -0.0221
     17 C17         9.0160   -0.9560   12.0550 C.ar      1    UNL1    -0.0353
     18 C18         9.8260    0.1410   12.3740 C.ar      1    UNL1    -0.0475
     19 C19         7.0280   -3.1060   10.9250 C.3       1    UNL1     0.0136
     20 C20        10.6610    2.4200   11.9580 C.2       1    UNL1     0.2520
     21 C21         8.7110    3.7490   12.8190 C.3       1    UNL1     0.0265
     22 C22         6.1280   -3.0840    6.3610 C.ar      1    UNL1     0.0275
     23 C23         7.6600    4.0840   11.7690 C.3       1    UNL1     0.0031
     24 C24        10.7930    4.9000   11.9660 C.ar      1    UNL1     0.1277
     25 C25         6.7250   -4.2220    6.9030 C.ar      1    UNL1    -0.0400
     26 C26         5.5510   -3.1370    5.0920 C.ar      1    UNL1    -0.0400
     27 C27        11.5350    5.4500   13.0000 C.ar      1    UNL1    -0.0213
     28 C28         6.7450   -5.4130    6.1760 C.ar      1    UNL1    -0.0453
     29 C29         5.5700   -4.3270    4.3660 C.ar      1    UNL1    -0.0453
     30 C30         6.1670   -5.4650    4.9080 C.ar      1    UNL1     0.0609
     31 C31         6.3210    3.4340   12.0440 C.2       1    UNL1     0.0432
     32 C32        12.2390    6.6210   12.7440 C.ar      1    UNL1    -0.0571
     33 C33        11.4090    6.5720   10.5160 C.ar      1    UNL1     0.0297
     34 C34        12.1800    7.2000   11.4810 C.ar      1    UNL1    -0.0435
     35 C35         6.1880   -6.7060    4.1500 C.2       1    UNL1     0.2662
     36 H1          6.3430   -1.0720    6.6120 H         1    UNL1     0.1465
     37 H2          5.4320   -7.0050    2.2470 H         1    UNL1     0.2883
     38 H3          4.2850   -7.1880    3.4950 H         1    UNL1     0.2883
     39 H4          7.1660   -8.4280    3.8440 H         1    UNL1     0.3009
     40 H5          7.8520   -7.4040    5.0220 H         1    UNL1     0.3009
     41 H6          5.6120   -2.8380    8.8450 H         1    UNL1     0.0541
     42 H7          4.8860   -1.2280    8.5530 H         1    UNL1     0.0541
     43 H8          8.9580    2.2620    9.8950 H         1    UNL1     0.0647
     44 H9          9.0340   -1.8110   12.6330 H         1    UNL1     0.0639
     45 H10        10.4470    0.0920   13.1960 H         1    UNL1     0.0626
     46 H11         7.6250   -3.2770   11.7960 H         1    UNL1     0.0456
     47 H12         7.2660   -3.8360   10.1800 H         1    UNL1     0.0456
     48 H13         5.9920   -3.1840   11.1820 H         1    UNL1     0.0456
     49 H14         8.6970    4.5050   13.5750 H         1    UNL1     0.0473
     50 H15         8.4750    2.7880   13.2260 H         1    UNL1     0.0473
     51 H16         8.0120    3.7500   10.8150 H         1    UNL1     0.0340
     52 H17         7.5120    5.1440   11.7900 H         1    UNL1     0.0340
     53 H18         7.1530   -4.1840    7.8410 H         1    UNL1     0.0636
     54 H19         5.1090   -2.2950    4.6910 H         1    UNL1     0.0636
     55 H20        11.5650    5.0030   13.9300 H         1    UNL1     0.0652
     56 H21         7.1870   -6.2550    6.5770 H         1    UNL1     0.0627
     57 H22         5.1430   -4.3660    3.4270 H         1    UNL1     0.0627
     58 H23        12.8030    7.0600   13.4890 H         1    UNL1     0.0619
     59 H24        11.3640    7.0000    9.5780 H         1    UNL1     0.0830
     60 H25        12.6940    8.0690   11.2690 H         1    UNL1     0.0633
@<TRIPOS>UNITY_ATOM_ATTR
2 1
charge -1
10 1
charge 1
@<TRIPOS>BOND
     1     1    20    2
     2     2    31   ar
     3     3    31   ar
     4     4    11   ar
     5     4    12   ar
     6     4    19    1
     7     5    12   ar
     8     5    13   ar
     9     6    20   am
    10     6    21    1
    11     6    24    1
    12     7    14    1
    13     7    22    1
    14     8    24   ar
    15     8    33   ar
    16     9    35    1
    17    10    35    2
    18    11    13   ar
    19    11    17   ar
    20    12    14    1
    21    13    16   ar
    22    15    16   ar
    23    15    18   ar
    24    15    20    1
    25    17    18   ar
    26    21    23    1
    27    22    25   ar
    28    22    26   ar
    29    23    31    1
    30    24    27   ar
    31    25    28   ar
    32    26    29   ar
    33    27    32   ar
    34    28    30   ar
    35    29    30   ar
    36    30    35    1
    37    32    34   ar
    38    33    34   ar
    39     7    36    1
    40     9    37    1
    41     9    38    1
    42    10    39    1
    43    10    40    1
    44    14    41    1
    45    14    42    1
    46    16    43    1
    47    17    44    1
    48    18    45    1
    49    19    46    1
    50    19    47    1
    51    19    48    1
    52    21    49    1
    53    21    50    1
    54    23    51    1
    55    23    52    1
    56    25    53    1
    57    26    54    1
    58    27    55    1
    59    28    56    1
    60    29    57    1
    61    32    58    1
    62    33    59    1
    63    34    60    1
