#REMARK Cluster   2 of Poses:  4 Score: -7.27 kcal/mol
@<TRIPOS>MOLECULE
5284571
 39 40 0 0 0
SMALL
GASTEIGER

@<TRIPOS>ATOM
      1 O1          6.5960    1.0400    7.8090 O.3       1    UNL1    -0.5062
      2 N2          6.7660    2.8080   13.4080 N.pl3     1    UNL1    -0.2497
      3 N3          5.2460   -6.7650    3.2340 N.pl3     1    UNL1    -0.2497
      4 N4          4.9290    3.5240   12.1530 N.2       1    UNL1    -0.2884
      5 N5          7.1970   -7.3570    4.3760 N.2       1    UNL1    -0.2884
      6 C6          6.3690   -0.5480    9.5980 C.ar      1    UNL1     0.0165
      7 C7          5.7010   -3.3120    6.9730 C.ar      1    UNL1    -0.0250
      8 C8          6.4100    0.7560    9.1290 C.ar      1    UNL1     0.1248
      9 C9          6.5270   -1.6810    8.6690 C.2       1    UNL1    -0.0506
     10 C10         6.0660    1.5510   11.3850 C.ar      1    UNL1     0.0643
     11 C11         6.1790   -0.8220   10.9440 C.ar      1    UNL1    -0.0503
     12 C12         5.5410   -2.2060    7.9040 C.2       1    UNL1    -0.0539
     13 C13         6.2570    1.8120   10.0280 C.ar      1    UNL1    -0.0049
     14 C14         6.0260    0.2340   11.8430 C.ar      1    UNL1    -0.0462
     15 C15         5.2650   -3.1820    5.6550 C.ar      1    UNL1    -0.0538
     16 C16         6.2900   -4.5020    7.3990 C.ar      1    UNL1    -0.0538
     17 C17         6.0070   -5.4330    5.1870 C.ar      1    UNL1     0.0608
     18 C18         5.4170   -4.2430    4.7620 C.ar      1    UNL1    -0.0465
     19 C19         6.4430   -5.5630    6.5060 C.ar      1    UNL1    -0.0465
     20 C20         5.9070    2.6510   12.3220 C.2       1    UNL1     0.2663
     21 C21         6.1660   -6.5400    4.2570 C.2       1    UNL1     0.2662
     22 H1          6.0050    0.6960    7.1680 H         1    UNL1     0.2922
     23 H2          7.7030    2.5150   13.3410 H         1    UNL1     0.2883
     24 H3          6.4350    3.2120   14.2430 H         1    UNL1     0.2883
     25 H4          5.5590   -7.0490    2.3450 H         1    UNL1     0.2883
     26 H5          4.2840   -6.6390    3.4010 H         1    UNL1     0.2883
     27 H6          4.8200    4.2690   12.7860 H         1    UNL1     0.3009
     28 H7          4.3100    3.4280   11.3940 H         1    UNL1     0.3009
     29 H8          7.3070   -8.1060    3.7470 H         1    UNL1     0.3009
     30 H9          7.8560   -7.2160    5.0940 H         1    UNL1     0.3009
     31 H10         7.4640   -2.1070    8.5950 H         1    UNL1     0.0625
     32 H11         6.1500   -1.7980   11.2780 H         1    UNL1     0.0625
     33 H12         4.6010   -1.7890    7.9890 H         1    UNL1     0.0624
     34 H13         6.2870    2.7860    9.6890 H         1    UNL1     0.0663
     35 H14         5.8840    0.0410   12.8470 H         1    UNL1     0.0626
     36 H15         4.8290   -2.3010    5.3390 H         1    UNL1     0.0624
     37 H16         6.6130   -4.5980    8.3740 H         1    UNL1     0.0624
     38 H17         5.0950   -4.1470    3.7860 H         1    UNL1     0.0626
     39 H18         6.8790   -6.4440    6.8210 H         1    UNL1     0.0626
@<TRIPOS>UNITY_ATOM_ATTR
4 1
charge 1
5 1
charge 1
@<TRIPOS>BOND
     1     1     8    1
     2     2    20    1
     3     3    21    1
     4     4    20    2
     5     5    21    2
     6     6     8   ar
     7     6     9    1
     8     6    11   ar
     9     7    12    1
    10     7    15   ar
    11     7    16   ar
    12     8    13   ar
    13     9    12    2
    14    10    13   ar
    15    10    14   ar
    16    10    20    1
    17    11    14   ar
    18    15    18   ar
    19    16    19   ar
    20    17    18   ar
    21    17    19   ar
    22    17    21    1
    23     1    22    1
    24     2    23    1
    25     2    24    1
    26     3    25    1
    27     3    26    1
    28     4    27    1
    29     4    28    1
    30     5    29    1
    31     5    30    1
    32     9    31    1
    33    11    32    1
    34    12    33    1
    35    13    34    1
    36    14    35    1
    37    15    36    1
    38    16    37    1
    39    18    38    1
    40    19    39    1
