#REMARK Cluster   9 of Poses:  1 Score: -7.70 kcal/mol
@<TRIPOS>MOLECULE
216210
 60 63 0 0 0
SMALL
GASTEIGER

@<TRIPOS>ATOM
      1 O1          2.0330   -2.2040   15.5730 O.2       1    UNL1    -0.2696
      2 O2          5.4850    3.3480   14.3360 O.co2     1    UNL1    -0.5498
      3 O3          4.5180    1.9590   12.8220 O.co2     1    UNL1    -0.5498
      4 N4          6.5150   -1.8870   11.2230 N.ar      1    UNL1    -0.3294
      5 N5          4.4710   -1.3410   10.5430 N.ar      1    UNL1    -0.2307
      6 N6          2.2390    0.1490   15.5370 N.am      1    UNL1    -0.2518
      7 N7          5.2800   -2.0770    7.7900 N.pl3     1    UNL1    -0.3367
      8 N8          0.5210    0.9740   17.0110 N.ar      1    UNL1    -0.2399
      9 N9          7.2380   -7.1720    4.3380 N.pl3     1    UNL1    -0.2497
     10 N10         5.2810   -6.5420    3.2270 N.2       1    UNL1    -0.2884
     11 C11         5.6830   -1.7540   12.3110 C.ar      1    UNL1     0.0686
     12 C12         5.7560   -1.6320   10.1810 C.ar      1    UNL1     0.1277
     13 C13         4.3950   -1.4110   11.9100 C.ar      1    UNL1     0.0901
     14 C14         6.2570   -1.6660    8.7910 C.3       1    UNL1     0.0674
     15 C15         3.6300   -1.3710   14.1630 C.ar      1    UNL1     0.0394
     16 C16         3.3420   -1.2110   12.8030 C.ar      1    UNL1    -0.0221
     17 C17         5.9550   -1.9100   13.6810 C.ar      1    UNL1    -0.0353
     18 C18         4.9130   -1.7140   14.5960 C.ar      1    UNL1    -0.0475
     19 C19         7.9150   -2.2350   11.2510 C.3       1    UNL1     0.0136
     20 C20         2.5730   -1.1750   15.1430 C.2       1    UNL1     0.2520
     21 C21         2.4010    1.2710   14.6000 C.3       1    UNL1     0.0265
     22 C22         5.4910   -3.1190    6.9130 C.ar      1    UNL1     0.0275
     23 C23         3.5150    2.2180   15.0280 C.3       1    UNL1     0.0031
     24 C24         1.7350    0.3950   16.8750 C.ar      1    UNL1     0.1277
     25 C25         5.5660   -2.8730    5.5420 C.ar      1    UNL1    -0.0400
     26 C26         5.6270   -4.4210    7.3960 C.ar      1    UNL1    -0.0400
     27 C27         2.5380    0.0190   17.9400 C.ar      1    UNL1    -0.0213
     28 C28         5.7780   -3.9280    4.6550 C.ar      1    UNL1    -0.0453
     29 C29         5.8380   -5.4760    6.5090 C.ar      1    UNL1    -0.0453
     30 C30         5.9140   -5.2290    5.1380 C.ar      1    UNL1     0.0609
     31 C31         4.5310    2.4660   13.9340 C.2       1    UNL1     0.0432
     32 C32         2.0640    0.2520   19.2260 C.ar      1    UNL1    -0.0571
     33 C33         0.0940    1.1850   18.2760 C.ar      1    UNL1     0.0297
     34 C34         0.8200    0.8450   19.4060 C.ar      1    UNL1    -0.0435
     35 C35         6.1350   -6.3290    4.2130 C.2       1    UNL1     0.2662
     36 H1          4.4280   -1.5870    7.7380 H         1    UNL1     0.1465
     37 H2          7.8260   -7.3300    3.5640 H         1    UNL1     0.2883
     38 H3          7.4290   -7.6080    5.1990 H         1    UNL1     0.2883
     39 H4          5.4280   -7.2860    2.6000 H         1    UNL1     0.3009
     40 H5          4.4970   -5.9560    3.1200 H         1    UNL1     0.3009
     41 H6          6.5970   -0.6840    8.5380 H         1    UNL1     0.0541
     42 H7          7.0310   -2.4040    8.7720 H         1    UNL1     0.0541
     43 H8          2.3960   -0.9580   12.4770 H         1    UNL1     0.0647
     44 H9          6.9020   -2.1630   14.0050 H         1    UNL1     0.0639
     45 H10         5.0960   -1.8240   15.6060 H         1    UNL1     0.0626
     46 H11         8.2270   -2.3770   12.2650 H         1    UNL1     0.0456
     47 H12         8.4870   -1.4450   10.8100 H         1    UNL1     0.0456
     48 H13         8.0700   -3.1390   10.7000 H         1    UNL1     0.0456
     49 H14         1.4820    1.8180   14.5540 H         1    UNL1     0.0473
     50 H15         2.6610    0.8680   13.6440 H         1    UNL1     0.0473
     51 H16         4.0180    1.7940   15.8710 H         1    UNL1     0.0340
     52 H17         3.0630    3.1590   15.2640 H         1    UNL1     0.0340
     53 H18         5.4660   -1.9100    5.1850 H         1    UNL1     0.0636
     54 H19         5.5710   -4.6030    8.4110 H         1    UNL1     0.0636
     55 H20         3.4590   -0.4200   17.7830 H         1    UNL1     0.0652
     56 H21         5.8340   -3.7450    3.6410 H         1    UNL1     0.0627
     57 H22         5.9390   -6.4380    6.8660 H         1    UNL1     0.0627
     58 H23         2.6340   -0.0150   20.0450 H         1    UNL1     0.0619
     59 H24        -0.8300    1.6260   18.4080 H         1    UNL1     0.0830
     60 H25         0.4490    1.0270   20.3520 H         1    UNL1     0.0633
@<TRIPOS>UNITY_ATOM_ATTR
2 1
charge -1
10 1
charge 1
@<TRIPOS>BOND
     1     1    20    2
     2     2    31   ar
     3     3    31   ar
     4     4    11   ar
     5     4    12   ar
     6     4    19    1
     7     5    12   ar
     8     5    13   ar
     9     6    20   am
    10     6    21    1
    11     6    24    1
    12     7    14    1
    13     7    22    1
    14     8    24   ar
    15     8    33   ar
    16     9    35    1
    17    10    35    2
    18    11    13   ar
    19    11    17   ar
    20    12    14    1
    21    13    16   ar
    22    15    16   ar
    23    15    18   ar
    24    15    20    1
    25    17    18   ar
    26    21    23    1
    27    22    25   ar
    28    22    26   ar
    29    23    31    1
    30    24    27   ar
    31    25    28   ar
    32    26    29   ar
    33    27    32   ar
    34    28    30   ar
    35    29    30   ar
    36    30    35    1
    37    32    34   ar
    38    33    34   ar
    39     7    36    1
    40     9    37    1
    41     9    38    1
    42    10    39    1
    43    10    40    1
    44    14    41    1
    45    14    42    1
    46    16    43    1
    47    17    44    1
    48    18    45    1
    49    19    46    1
    50    19    47    1
    51    19    48    1
    52    21    49    1
    53    21    50    1
    54    23    51    1
    55    23    52    1
    56    25    53    1
    57    26    54    1
    58    27    55    1
    59    28    56    1
    60    29    57    1
    61    32    58    1
    62    33    59    1
    63    34    60    1
