#REMARK Cluster   4 of Poses:  2 Score: -7.08 kcal/mol
@<TRIPOS>MOLECULE
5284571
 39 40 0 0 0
SMALL
GASTEIGER

@<TRIPOS>ATOM
      1 O1          6.3800   -5.3540    8.7500 O.3       1    UNL1    -0.5062
      2 N2          5.7960   -6.5140    2.8020 N.pl3     1    UNL1    -0.2497
      3 N3          6.1610    2.4150   13.3950 N.pl3     1    UNL1    -0.2497
      4 N4          6.8770   -7.8350    4.3970 N.2       1    UNL1    -0.2884
      5 N5          4.7640    3.5030   11.8710 N.2       1    UNL1    -0.2884
      6 C6          5.7350   -3.7520    7.0800 C.ar      1    UNL1     0.0165
      7 C7          6.1310   -0.5710    9.2490 C.ar      1    UNL1    -0.0250
      8 C8          6.1430   -5.0240    7.4480 C.ar      1    UNL1     0.1248
      9 C9          5.5440   -2.7040    8.0990 C.2       1    UNL1    -0.0506
     10 C10         6.0810   -5.6880    5.1260 C.ar      1    UNL1     0.0643
     11 C11         5.4970   -3.4290    5.7530 C.ar      1    UNL1    -0.0503
     12 C12         6.3310   -1.6140    8.2550 C.2       1    UNL1    -0.0539
     13 C13         6.3170   -5.9990    6.4650 C.ar      1    UNL1    -0.0049
     14 C14         5.6720   -4.4030    4.7700 C.ar      1    UNL1    -0.0462
     15 C15         5.4160   -0.8450   10.4140 C.ar      1    UNL1    -0.0538
     16 C16         6.6540    0.7050    9.0350 C.ar      1    UNL1    -0.0538
     17 C17         5.7470    1.4310   11.1530 C.ar      1    UNL1     0.0608
     18 C18         5.2240    0.1560   11.3660 C.ar      1    UNL1    -0.0465
     19 C19         6.4620    1.7060    9.9870 C.ar      1    UNL1    -0.0465
     20 C20         6.2630   -6.7040    4.1010 C.2       1    UNL1     0.2663
     21 C21         5.5460    2.4750   12.1460 C.2       1    UNL1     0.2662
     22 H1          6.1790   -6.2160    9.0590 H         1    UNL1     0.2922
     23 H2          6.0120   -5.6840    2.3170 H         1    UNL1     0.2883
     24 H3          5.2500   -7.2090    2.3680 H         1    UNL1     0.2883
     25 H4          5.9920    1.6500   13.9910 H         1    UNL1     0.2883
     26 H5          6.7640    3.1380   13.6820 H         1    UNL1     0.2883
     27 H6          7.0010   -8.5240    3.7050 H         1    UNL1     0.3009
     28 H7          7.2110   -7.9900    5.3100 H         1    UNL1     0.3009
     29 H8          4.6270    4.2110   12.5410 H         1    UNL1     0.3009
     30 H9          4.3180    3.5620   10.9950 H         1    UNL1     0.3009
     31 H10         4.7460   -2.8110    8.7460 H         1    UNL1     0.0625
     32 H11         5.1940   -2.4770    5.4940 H         1    UNL1     0.0625
     33 H12         7.1370   -1.5150    7.6180 H         1    UNL1     0.0624
     34 H13         6.6200   -6.9490    6.7290 H         1    UNL1     0.0663
     35 H14         5.4970   -4.1730    3.7790 H         1    UNL1     0.0626
     36 H15         5.0300   -1.7890   10.5720 H         1    UNL1     0.0624
     37 H16         7.1830    0.9080    8.1730 H         1    UNL1     0.0624
     38 H17         4.6950   -0.0470   12.2290 H         1    UNL1     0.0626
     39 H18         6.8490    2.6490    9.8300 H         1    UNL1     0.0626
@<TRIPOS>UNITY_ATOM_ATTR
4 1
charge 1
5 1
charge 1
@<TRIPOS>BOND
     1     1     8    1
     2     2    20    1
     3     3    21    1
     4     4    20    2
     5     5    21    2
     6     6     8   ar
     7     6     9    1
     8     6    11   ar
     9     7    12    1
    10     7    15   ar
    11     7    16   ar
    12     8    13   ar
    13     9    12    2
    14    10    13   ar
    15    10    14   ar
    16    10    20    1
    17    11    14   ar
    18    15    18   ar
    19    16    19   ar
    20    17    18   ar
    21    17    19   ar
    22    17    21    1
    23     1    22    1
    24     2    23    1
    25     2    24    1
    26     3    25    1
    27     3    26    1
    28     4    27    1
    29     4    28    1
    30     5    29    1
    31     5    30    1
    32     9    31    1
    33    11    32    1
    34    12    33    1
    35    13    34    1
    36    14    35    1
    37    15    36    1
    38    16    37    1
    39    18    38    1
    40    19    39    1
