#REMARK Cluster  14 of Poses:  1 Score: -7.40 kcal/mol
@<TRIPOS>MOLECULE
216210
 60 63 0 0 0
SMALL
GASTEIGER

@<TRIPOS>ATOM
      1 O1          5.9810    5.1490   12.8350 O.2       1    UNL1    -0.2696
      2 O2          4.5740   -1.2340   14.2590 O.co2     1    UNL1    -0.5498
      3 O3          6.0240    0.0060   13.0280 O.co2     1    UNL1    -0.5498
      4 N4          7.7880    0.2940    9.3380 N.ar      1    UNL1    -0.3294
      5 N5          5.6220    0.7900    9.2940 N.ar      1    UNL1    -0.2307
      6 N6          5.2850    3.4510   14.3220 N.am      1    UNL1    -0.2518
      7 N7          6.2270   -2.2420    7.9500 N.pl3     1    UNL1    -0.3367
      8 N8          3.1280    4.5190   14.2130 N.ar      1    UNL1    -0.2399
      9 N9          5.4440   -6.3470    3.0260 N.pl3     1    UNL1    -0.2497
     10 N10         6.8800   -7.5330    4.4380 N.2       1    UNL1    -0.2884
     11 C11         7.4980    1.2000   10.3320 C.ar      1    UNL1     0.0686
     12 C12         6.6410    0.0710    8.7360 C.ar      1    UNL1     0.1277
     13 C13         6.1450    1.5270   10.3250 C.ar      1    UNL1     0.0901
     14 C14         6.4960   -0.8550    7.5930 C.3       1    UNL1     0.0674
     15 C15         6.4230    3.0060   12.1680 C.ar      1    UNL1     0.0394
     16 C16         5.5690    2.4240   11.2250 C.ar      1    UNL1    -0.0221
     17 C17         8.3420    1.7940   11.2860 C.ar      1    UNL1    -0.0353
     18 C18         7.7850    2.6980   12.2000 C.ar      1    UNL1    -0.0475
     19 C19         9.0810   -0.2740    9.0440 C.3       1    UNL1     0.0136
     20 C20         5.8810    3.9500   13.1330 C.2       1    UNL1     0.2520
     21 C21         5.7480    2.1870   14.9170 C.3       1    UNL1     0.0265
     22 C22         6.2170   -3.2700    7.0310 C.ar      1    UNL1     0.0275
     23 C23         4.7140    1.0770   14.7810 C.3       1    UNL1     0.0031
     24 C24         4.2100    4.1920   14.9540 C.ar      1    UNL1     0.1277
     25 C25         5.4900   -3.1400    5.8480 C.ar      1    UNL1    -0.0400
     26 C26         6.9330   -4.4390    7.2850 C.ar      1    UNL1    -0.0400
     27 C27         4.3620    4.5230   16.2910 C.ar      1    UNL1    -0.0213
     28 C28         5.4790   -4.1810    4.9190 C.ar      1    UNL1    -0.0453
     29 C29         6.9220   -5.4800    6.3560 C.ar      1    UNL1    -0.0453
     30 C30         6.1950   -5.3500    5.1730 C.ar      1    UNL1     0.0609
     31 C31         5.1900   -0.0710   13.9190 C.2       1    UNL1     0.0432
     32 C32         3.3380    5.2340   16.9060 C.ar      1    UNL1    -0.0571
     33 C33         2.1530    5.2100   14.8440 C.ar      1    UNL1     0.0297
     34 C34         2.2090    5.5880   16.1760 C.ar      1    UNL1    -0.0435
     35 C35         6.1830   -6.4350    4.2040 C.2       1    UNL1     0.2662
     36 H1          6.0440   -2.4560    8.8930 H         1    UNL1     0.1465
     37 H2          4.4670   -6.2320    3.0650 H         1    UNL1     0.2883
     38 H3          5.8990   -6.4010    2.1550 H         1    UNL1     0.2883
     39 H4          6.8740   -8.2690    3.7830 H         1    UNL1     0.3009
     40 H5          7.4060   -7.6160    5.2660 H         1    UNL1     0.3009
     41 H6          5.6870   -0.5060    6.9860 H         1    UNL1     0.0541
     42 H7          7.4400   -0.8550    7.0890 H         1    UNL1     0.0541
     43 H8          4.5620    2.6480   11.1970 H         1    UNL1     0.0647
     44 H9          9.3490    1.5690   11.3130 H         1    UNL1     0.0639
     45 H10         8.3910    3.1430   12.9070 H         1    UNL1     0.0626
     46 H11         9.8070    0.1190    9.7250 H         1    UNL1     0.0456
     47 H12         9.3610   -0.0250    8.0420 H         1    UNL1     0.0456
     48 H13         9.0360   -1.3380    9.1470 H         1    UNL1     0.0456
     49 H14         5.9480    2.3470   15.9560 H         1    UNL1     0.0473
     50 H15         6.6310    1.8810   14.3950 H         1    UNL1     0.0473
     51 H16         3.8280    1.4880   14.3440 H         1    UNL1     0.0340
     52 H17         4.5310    0.6880   15.7610 H         1    UNL1     0.0340
     53 H18         4.9600   -2.2750    5.6600 H         1    UNL1     0.0636
     54 H19         7.4710   -4.5350    8.1600 H         1    UNL1     0.0636
     55 H20         5.2090    4.2500   16.8140 H         1    UNL1     0.0652
     56 H21         4.9410   -4.0850    4.0430 H         1    UNL1     0.0627
     57 H22         7.4520   -6.3450    6.5440 H         1    UNL1     0.0627
     58 H23         3.4160    5.4990   17.9010 H         1    UNL1     0.0619
     59 H24         1.3150    5.4720   14.3010 H         1    UNL1     0.0830
     60 H25         1.4370    6.1160   16.6130 H         1    UNL1     0.0633
@<TRIPOS>UNITY_ATOM_ATTR
2 1
charge -1
10 1
charge 1
@<TRIPOS>BOND
     1     1    20    2
     2     2    31   ar
     3     3    31   ar
     4     4    11   ar
     5     4    12   ar
     6     4    19    1
     7     5    12   ar
     8     5    13   ar
     9     6    20   am
    10     6    21    1
    11     6    24    1
    12     7    14    1
    13     7    22    1
    14     8    24   ar
    15     8    33   ar
    16     9    35    1
    17    10    35    2
    18    11    13   ar
    19    11    17   ar
    20    12    14    1
    21    13    16   ar
    22    15    16   ar
    23    15    18   ar
    24    15    20    1
    25    17    18   ar
    26    21    23    1
    27    22    25   ar
    28    22    26   ar
    29    23    31    1
    30    24    27   ar
    31    25    28   ar
    32    26    29   ar
    33    27    32   ar
    34    28    30   ar
    35    29    30   ar
    36    30    35    1
    37    32    34   ar
    38    33    34   ar
    39     7    36    1
    40     9    37    1
    41     9    38    1
    42    10    39    1
    43    10    40    1
    44    14    41    1
    45    14    42    1
    46    16    43    1
    47    17    44    1
    48    18    45    1
    49    19    46    1
    50    19    47    1
    51    19    48    1
    52    21    49    1
    53    21    50    1
    54    23    51    1
    55    23    52    1
    56    25    53    1
    57    26    54    1
    58    27    55    1
    59    28    56    1
    60    29    57    1
    61    32    58    1
    62    33    59    1
    63    34    60    1
