#REMARK Cluster  15 of Poses:  1 Score: -7.27 kcal/mol
@<TRIPOS>MOLECULE
216210
 60 63 0 0 0
SMALL
GASTEIGER

@<TRIPOS>ATOM
      1 O1          7.3190   -9.0140   11.5260 O.2       1    UNL1    -0.2696
      2 O2          2.5860   -6.9210   11.4820 O.co2     1    UNL1    -0.5498
      3 O3          1.0490   -8.3810   12.2950 O.co2     1    UNL1    -0.5498
      4 N4          4.9780   -3.2640   11.0220 N.ar      1    UNL1    -0.3294
      5 N5          5.0330   -4.7000    9.3270 N.ar      1    UNL1    -0.2307
      6 N6          5.5770   -9.3250   13.0910 N.am      1    UNL1    -0.2518
      7 N7          5.2220   -2.1750    7.6220 N.pl3     1    UNL1    -0.3367
      8 N8          6.5510  -10.1610   15.1300 N.ar      1    UNL1    -0.2399
      9 N9          7.1780   -7.2950    4.2070 N.pl3     1    UNL1    -0.2497
     10 N10         5.2960   -6.5920    3.0140 N.2       1    UNL1    -0.2884
     11 C11         5.3290   -4.5120   11.4820 C.ar      1    UNL1     0.0686
     12 C12         4.8070   -3.4130    9.7280 C.ar      1    UNL1     0.1277
     13 C13         5.3710   -5.4310   10.4370 C.ar      1    UNL1     0.0901
     14 C14         4.4200   -2.3040    8.8320 C.3       1    UNL1     0.0674
     15 C15         5.9970   -7.1870   11.9150 C.ar      1    UNL1     0.0394
     16 C16         5.7010   -6.7750   10.6120 C.ar      1    UNL1    -0.0221
     17 C17         5.6300   -4.9420   12.7850 C.ar      1    UNL1    -0.0353
     18 C18         5.9630   -6.2880   12.9840 C.ar      1    UNL1    -0.0475
     19 C19         4.8350   -2.0660   11.8140 C.3       1    UNL1     0.0136
     20 C20         6.3480   -8.5780   12.1610 C.2       1    UNL1     0.2520
     21 C21         4.1510   -9.0220   13.2950 C.3       1    UNL1     0.0265
     22 C22         5.4390   -3.2150    6.7440 C.ar      1    UNL1     0.0275
     23 C23         3.3570   -9.1060   11.9980 C.3       1    UNL1     0.0031
     24 C24         6.2000  -10.3960   13.8460 C.ar      1    UNL1     0.1277
     25 C25         6.4040   -4.1800    7.0310 C.ar      1    UNL1    -0.0400
     26 C26         4.6930   -3.3030    5.5690 C.ar      1    UNL1    -0.0400
     27 C27         6.3990  -11.6040   13.1960 C.ar      1    UNL1    -0.0213
     28 C28         6.6240   -5.2320    6.1430 C.ar      1    UNL1    -0.0453
     29 C29         4.9130   -4.3550    4.6800 C.ar      1    UNL1    -0.0453
     30 C30         5.8790   -5.3200    4.9670 C.ar      1    UNL1     0.0609
     31 C31         2.1970   -8.1350   11.9520 C.2       1    UNL1     0.0432
     32 C32         6.9960  -12.6360   13.9100 C.ar      1    UNL1    -0.0571
     33 C33         7.1290  -11.1890   15.7920 C.ar      1    UNL1     0.0297
     34 C34         7.3710  -12.4330   15.2330 C.ar      1    UNL1    -0.0435
     35 C35         6.1090   -6.4170    4.0400 C.2       1    UNL1     0.2662
     36 H1          5.6290   -1.3010    7.4210 H         1    UNL1     0.1465
     37 H2          7.4060   -7.6290    5.1050 H         1    UNL1     0.2883
     38 H3          7.7070   -7.5810    3.4270 H         1    UNL1     0.2883
     39 H4          5.4490   -7.3340    2.3850 H         1    UNL1     0.3009
     40 H5          4.5360   -5.9810    2.8770 H         1    UNL1     0.3009
     41 H6          3.4010   -2.4550    8.5390 H         1    UNL1     0.0541
     42 H7          4.5750   -1.4040    9.3890 H         1    UNL1     0.0541
     43 H8          5.7240   -7.4340    9.8180 H         1    UNL1     0.0647
     44 H9          5.6060   -4.2820   13.5780 H         1    UNL1     0.0639
     45 H10         6.1870   -6.6210   13.9350 H         1    UNL1     0.0626
     46 H11         5.0460   -2.2890   12.8390 H         1    UNL1     0.0456
     47 H12         3.8340   -1.6980   11.7280 H         1    UNL1     0.0456
     48 H13         5.5200   -1.3220   11.4630 H         1    UNL1     0.0456
     49 H14         4.0620   -8.0320   13.6910 H         1    UNL1     0.0473
     50 H15         3.7530   -9.7490   13.9730 H         1    UNL1     0.0473
     51 H16         2.9730  -10.1000   11.8970 H         1    UNL1     0.0340
     52 H17         4.0200   -8.8510   11.1990 H         1    UNL1     0.0340
     53 H18         6.9560   -4.1150    7.9010 H         1    UNL1     0.0636
     54 H19         3.9790   -2.5890    5.3560 H         1    UNL1     0.0636
     55 H20         6.1130  -11.7320   12.2120 H         1    UNL1     0.0652
     56 H21         7.3390   -5.9460    6.3550 H         1    UNL1     0.0627
     57 H22         4.3620   -4.4200    3.8100 H         1    UNL1     0.0627
     58 H23         7.1610  -13.5500   13.4590 H         1    UNL1     0.0619
     59 H24         7.4060  -11.0360   16.7740 H         1    UNL1     0.0830
     60 H25         7.8160  -13.1850   15.7820 H         1    UNL1     0.0633
@<TRIPOS>UNITY_ATOM_ATTR
2 1
charge -1
10 1
charge 1
@<TRIPOS>BOND
     1     1    20    2
     2     2    31   ar
     3     3    31   ar
     4     4    11   ar
     5     4    12   ar
     6     4    19    1
     7     5    12   ar
     8     5    13   ar
     9     6    20   am
    10     6    21    1
    11     6    24    1
    12     7    14    1
    13     7    22    1
    14     8    24   ar
    15     8    33   ar
    16     9    35    1
    17    10    35    2
    18    11    13   ar
    19    11    17   ar
    20    12    14    1
    21    13    16   ar
    22    15    16   ar
    23    15    18   ar
    24    15    20    1
    25    17    18   ar
    26    21    23    1
    27    22    25   ar
    28    22    26   ar
    29    23    31    1
    30    24    27   ar
    31    25    28   ar
    32    26    29   ar
    33    27    32   ar
    34    28    30   ar
    35    29    30   ar
    36    30    35    1
    37    32    34   ar
    38    33    34   ar
    39     7    36    1
    40     9    37    1
    41     9    38    1
    42    10    39    1
    43    10    40    1
    44    14    41    1
    45    14    42    1
    46    16    43    1
    47    17    44    1
    48    18    45    1
    49    19    46    1
    50    19    47    1
    51    19    48    1
    52    21    49    1
    53    21    50    1
    54    23    51    1
    55    23    52    1
    56    25    53    1
    57    26    54    1
    58    27    55    1
    59    28    56    1
    60    29    57    1
    61    32    58    1
    62    33    59    1
    63    34    60    1
