#REMARK Cluster   7 of Poses:  2 Score: -8.08 kcal/mol
@<TRIPOS>MOLECULE
216210
 60 63 0 0 0
SMALL
GASTEIGER

@<TRIPOS>ATOM
      1 O1          4.2190   -2.7960    7.3860 O.2       1    UNL1    -0.2696
      2 O2          7.8400   -7.6630   10.2440 O.co2     1    UNL1    -0.5498
      3 O3          9.1250   -5.7980   10.0760 O.co2     1    UNL1    -0.5498
      4 N4          7.5420    1.2590   10.7620 N.ar      1    UNL1    -0.3294
      5 N5          7.1770    1.6210    8.6000 N.ar      1    UNL1    -0.2307
      6 N6          6.2130   -4.0630    7.4180 N.am      1    UNL1    -0.2518
      7 N7          9.2460    3.8740    9.0900 N.pl3     1    UNL1    -0.3367
      8 N8          4.9870   -4.3670    5.3660 N.ar      1    UNL1    -0.2399
      9 N9         14.7440    0.6740   10.1980 N.pl3     1    UNL1    -0.2497
     10 N10        14.8330    1.0300    7.8900 N.2       1    UNL1    -0.2884
     11 C11         7.0170    0.1260   10.1840 C.ar      1    UNL1     0.0686
     12 C12         7.6240    2.1340    9.7850 C.ar      1    UNL1     0.1277
     13 C13         6.7790    0.3280    8.8270 C.ar      1    UNL1     0.0901
     14 C14         8.1450    3.5040    9.9710 C.3       1    UNL1     0.0674
     15 C15         5.9510   -1.8880    8.5720 C.ar      1    UNL1     0.0394
     16 C16         6.2480   -0.6520    7.9880 C.ar      1    UNL1    -0.0221
     17 C17         6.7120   -1.1210   10.7550 C.ar      1    UNL1    -0.0353
     18 C18         6.1780   -2.1200    9.9310 C.ar      1    UNL1    -0.0475
     19 C19         7.9150    1.4210   12.1470 C.3       1    UNL1     0.0136
     20 C20         5.3940   -2.9500    7.7480 C.2       1    UNL1     0.2520
     21 C21         7.2710   -4.5110    8.3370 C.3       1    UNL1     0.0265
     22 C22        10.4550    3.2140    9.0750 C.ar      1    UNL1     0.0275
     23 C23         7.0110   -5.9150    8.8690 C.3       1    UNL1     0.0031
     24 C24         6.0030   -4.7630    6.1650 C.ar      1    UNL1     0.1277
     25 C25        10.7840    2.3370   10.1080 C.ar      1    UNL1    -0.0400
     26 C26        11.3510    3.4240    8.0260 C.ar      1    UNL1    -0.0400
     27 C27         6.8660   -5.8050    5.8630 C.ar      1    UNL1    -0.0213
     28 C28        12.0090    1.6690   10.0930 C.ar      1    UNL1    -0.0453
     29 C29        12.5760    2.7560    8.0110 C.ar      1    UNL1    -0.0453
     30 C30        12.9050    1.8790    9.0450 C.ar      1    UNL1     0.0609
     31 C31         8.1130   -6.4160    9.7770 C.2       1    UNL1     0.0432
     32 C32         6.6730   -6.4830    4.6650 C.ar      1    UNL1    -0.0571
     33 C33         4.8310   -5.0500    4.2100 C.ar      1    UNL1     0.0297
     34 C34         5.6390   -6.1040    3.8170 C.ar      1    UNL1    -0.0435
     35 C35        14.1820    1.1840    9.0290 C.2       1    UNL1     0.2662
     36 H1          9.1190    4.6330    8.4760 H         1    UNL1     0.1465
     37 H2         15.4450   -0.0150   10.1470 H         1    UNL1     0.2883
     38 H3         14.4400    1.0030   11.0750 H         1    UNL1     0.2883
     39 H4         15.6980    0.5600    7.8770 H         1    UNL1     0.3009
     40 H5         14.4540    1.3860    7.0540 H         1    UNL1     0.3009
     41 H6          7.3400    4.1890    9.8020 H         1    UNL1     0.0541
     42 H7          8.5350    3.5410   10.9670 H         1    UNL1     0.0541
     43 H8          6.0830   -0.4740    6.9850 H         1    UNL1     0.0647
     44 H9          6.8780   -1.2970   11.7580 H         1    UNL1     0.0639
     45 H10         5.9480   -3.0420   10.3340 H         1    UNL1     0.0626
     46 H11         7.7190    0.5130   12.6780 H         1    UNL1     0.0456
     47 H12         7.3440    2.2170   12.5790 H         1    UNL1     0.0456
     48 H13         8.9570    1.6550   12.2110 H         1    UNL1     0.0456
     49 H14         7.3210   -3.8330    9.1630 H         1    UNL1     0.0473
     50 H15         8.1930   -4.5300    7.7940 H         1    UNL1     0.0473
     51 H16         6.9230   -6.5840    8.0380 H         1    UNL1     0.0340
     52 H17         6.1110   -5.8770    9.4470 H         1    UNL1     0.0340
     53 H18        10.1210    2.1810   10.8840 H         1    UNL1     0.0636
     54 H19        11.1070    4.0720    7.2620 H         1    UNL1     0.0636
     55 H20         7.6270   -6.0690    6.5080 H         1    UNL1     0.0652
     56 H21        12.2520    1.0200   10.8580 H         1    UNL1     0.0627
     57 H22        13.2380    2.9120    7.2360 H         1    UNL1     0.0627
     58 H23         7.2960   -7.2650    4.4060 H         1    UNL1     0.0619
     59 H24         4.0630   -4.7680    3.5810 H         1    UNL1     0.0830
     60 H25         5.4780   -6.5940    2.9220 H         1    UNL1     0.0633
@<TRIPOS>UNITY_ATOM_ATTR
2 1
charge -1
10 1
charge 1
@<TRIPOS>BOND
     1     1    20    2
     2     2    31   ar
     3     3    31   ar
     4     4    11   ar
     5     4    12   ar
     6     4    19    1
     7     5    12   ar
     8     5    13   ar
     9     6    20   am
    10     6    21    1
    11     6    24    1
    12     7    14    1
    13     7    22    1
    14     8    24   ar
    15     8    33   ar
    16     9    35    1
    17    10    35    2
    18    11    13   ar
    19    11    17   ar
    20    12    14    1
    21    13    16   ar
    22    15    16   ar
    23    15    18   ar
    24    15    20    1
    25    17    18   ar
    26    21    23    1
    27    22    25   ar
    28    22    26   ar
    29    23    31    1
    30    24    27   ar
    31    25    28   ar
    32    26    29   ar
    33    27    32   ar
    34    28    30   ar
    35    29    30   ar
    36    30    35    1
    37    32    34   ar
    38    33    34   ar
    39     7    36    1
    40     9    37    1
    41     9    38    1
    42    10    39    1
    43    10    40    1
    44    14    41    1
    45    14    42    1
    46    16    43    1
    47    17    44    1
    48    18    45    1
    49    19    46    1
    50    19    47    1
    51    19    48    1
    52    21    49    1
    53    21    50    1
    54    23    51    1
    55    23    52    1
    56    25    53    1
    57    26    54    1
    58    27    55    1
    59    28    56    1
    60    29    57    1
    61    32    58    1
    62    33    59    1
    63    34    60    1
