#REMARK Cluster   3 of Poses:  8 Score: -7.23 kcal/mol
@<TRIPOS>MOLECULE
5284571
 39 40 0 0 0
SMALL
GASTEIGER

@<TRIPOS>ATOM
      1 O1          3.9620   -2.2170    5.8310 O.3       1    UNL1    -0.5062
      2 N2          7.1580   -7.1990    4.3670 N.pl3     1    UNL1    -0.2497
      3 N3          4.6780    3.9510   12.1510 N.pl3     1    UNL1    -0.2497
      4 N4          5.3140   -6.3060    3.2440 N.2       1    UNL1    -0.2884
      5 N5          6.7450    3.3010   13.0260 N.2       1    UNL1    -0.2884
      6 C6          5.7200   -3.1840    7.1510 C.ar      1    UNL1     0.0165
      7 C7          6.2000    0.0510    9.2210 C.ar      1    UNL1    -0.0250
      8 C8          4.9040   -3.1820    6.0310 C.ar      1    UNL1     0.1248
      9 C9          5.5920   -2.1280    8.1710 C.2       1    UNL1    -0.0506
     10 C10         6.0000   -5.1920    5.2600 C.ar      1    UNL1     0.0643
     11 C11         6.6750   -4.1720    7.3430 C.ar      1    UNL1    -0.0503
     12 C12         6.3390   -1.0010    8.2250 C.2       1    UNL1    -0.0539
     13 C13         5.0440   -4.1920    5.0800 C.ar      1    UNL1    -0.0049
     14 C14         6.8150   -5.1820    6.3920 C.ar      1    UNL1    -0.0462
     15 C15         6.2850    1.3890    8.8380 C.ar      1    UNL1    -0.0538
     16 C16         5.9820   -0.2790   10.5580 C.ar      1    UNL1    -0.0538
     17 C17         5.9340    2.0670   11.1300 C.ar      1    UNL1     0.0608
     18 C18         6.1520    2.3980    9.7920 C.ar      1    UNL1    -0.0465
     19 C19         5.8490    0.7290   11.5130 C.ar      1    UNL1    -0.0465
     20 C20         6.1470   -6.2450    4.2670 C.2       1    UNL1     0.2663
     21 C21         5.7960    3.1190   12.1250 C.2       1    UNL1     0.2662
     22 H1          3.2680   -2.1030    6.4510 H         1    UNL1     0.2922
     23 H2          7.5680   -7.5690    3.5520 H         1    UNL1     0.2883
     24 H3          7.4620   -7.5030    5.2530 H         1    UNL1     0.2883
     25 H4          4.7870    4.9170   12.3070 H         1    UNL1     0.2883
     26 H5          3.7800    3.5730   12.0130 H         1    UNL1     0.2883
     27 H6          5.4120   -7.0180    2.5710 H         1    UNL1     0.3009
     28 H7          4.5950   -5.6390    3.1540 H         1    UNL1     0.3009
     29 H8          6.6530    4.0120   13.7010 H         1    UNL1     0.3009
     30 H9          7.5440    2.7250   13.0230 H         1    UNL1     0.3009
     31 H10         4.8750   -2.2590    8.9030 H         1    UNL1     0.0625
     32 H11         7.2750   -4.1600    8.1820 H         1    UNL1     0.0625
     33 H12         7.0660   -0.8770    7.5020 H         1    UNL1     0.0624
     34 H13         4.4410   -4.2000    4.2420 H         1    UNL1     0.0663
     35 H14         7.5220   -5.9220    6.5250 H         1    UNL1     0.0626
     36 H15         6.4460    1.6340    7.8480 H         1    UNL1     0.0624
     37 H16         5.9190   -1.2700   10.8410 H         1    UNL1     0.0624
     38 H17         6.2150    3.3880    9.5090 H         1    UNL1     0.0626
     39 H18         5.6880    0.4840   12.5020 H         1    UNL1     0.0626
@<TRIPOS>UNITY_ATOM_ATTR
4 1
charge 1
5 1
charge 1
@<TRIPOS>BOND
     1     1     8    1
     2     2    20    1
     3     3    21    1
     4     4    20    2
     5     5    21    2
     6     6     8   ar
     7     6     9    1
     8     6    11   ar
     9     7    12    1
    10     7    15   ar
    11     7    16   ar
    12     8    13   ar
    13     9    12    2
    14    10    13   ar
    15    10    14   ar
    16    10    20    1
    17    11    14   ar
    18    15    18   ar
    19    16    19   ar
    20    17    18   ar
    21    17    19   ar
    22    17    21    1
    23     1    22    1
    24     2    23    1
    25     2    24    1
    26     3    25    1
    27     3    26    1
    28     4    27    1
    29     4    28    1
    30     5    29    1
    31     5    30    1
    32     9    31    1
    33    11    32    1
    34    12    33    1
    35    13    34    1
    36    14    35    1
    37    15    36    1
    38    16    37    1
    39    18    38    1
    40    19    39    1
