#REMARK Cluster   2 of Poses:  2 Score: -8.81 kcal/mol
@<TRIPOS>MOLECULE
216210
 60 63 0 0 0
SMALL
GASTEIGER

@<TRIPOS>ATOM
      1 O1          4.2740    5.3320   11.4210 O.2       1    UNL1    -0.2696
      2 O2          6.8500    7.6730   13.0320 O.co2     1    UNL1    -0.5498
      3 O3          8.6200    7.5060   14.4440 O.co2     1    UNL1    -0.5498
      4 N4          7.2860    0.3710    9.1380 N.ar      1    UNL1    -0.3294
      5 N5          5.2180    0.1660    9.9250 N.ar      1    UNL1    -0.2307
      6 N6          5.6080    4.9390   13.3300 N.am      1    UNL1    -0.2518
      7 N7          5.7090   -1.8270    7.2580 N.pl3     1    UNL1    -0.3367
      8 N8          3.3860    5.6020   13.9850 N.ar      1    UNL1    -0.2399
      9 N9          6.6830   -7.5960    4.5240 N.pl3     1    UNL1    -0.2497
     10 N10         5.5720   -6.4260    2.8330 N.2       1    UNL1    -0.2884
     11 C11         6.9290    1.5170    9.8100 C.ar      1    UNL1     0.0686
     12 C12         6.2380   -0.4170    9.2250 C.ar      1    UNL1     0.1277
     13 C13         5.6350    1.4130   10.3140 C.ar      1    UNL1     0.0901
     14 C14         6.1920   -1.7690    8.6320 C.3       1    UNL1     0.0674
     15 C15         5.7520    3.5940   11.2560 C.ar      1    UNL1     0.0394
     16 C16         5.0120    2.4270   11.0410 C.ar      1    UNL1    -0.0221
     17 C17         7.6580    2.6970   10.0350 C.ar      1    UNL1    -0.0353
     18 C18         7.0520    3.7290   10.7630 C.ar      1    UNL1    -0.0475
     19 C19         8.5480    0.1160    8.4860 C.3       1    UNL1     0.0136
     20 C20         5.1550    4.6890   12.0070 C.2       1    UNL1     0.2520
     21 C21         6.9950    4.6350   13.7170 C.3       1    UNL1     0.0265
     22 C22         5.7970   -2.9570    6.4740 C.ar      1    UNL1     0.0275
     23 C23         7.9910    5.5910   13.0740 C.3       1    UNL1     0.0031
     24 C24         4.6940    5.5000   14.3080 C.ar      1    UNL1     0.1277
     25 C25         6.6640   -3.9890    6.8320 C.ar      1    UNL1    -0.0400
     26 C26         5.0190   -3.0680    5.3210 C.ar      1    UNL1    -0.0400
     27 C27         5.2270    5.9010   15.5230 C.ar      1    UNL1    -0.0213
     28 C28         6.7540   -5.1320    6.0380 C.ar      1    UNL1    -0.0453
     29 C29         5.1090   -4.2110    4.5270 C.ar      1    UNL1    -0.0453
     30 C30         5.9760   -5.2430    4.8850 C.ar      1    UNL1     0.0609
     31 C31         7.8830    7.0030   13.6080 C.2       1    UNL1     0.0432
     32 C32         4.3600    6.4410   16.4670 C.ar      1    UNL1    -0.0571
     33 C33         2.5740    6.1320   14.9270 C.ar      1    UNL1     0.0297
     34 C34         3.0070    6.5620   16.1710 C.ar      1    UNL1    -0.0435
     35 C35         6.0700   -6.4350    4.0570 C.2       1    UNL1     0.2662
     36 H1          5.3000   -1.0200    6.8710 H         1    UNL1     0.1465
     37 H2          7.0930   -7.6110    5.4190 H         1    UNL1     0.2883
     38 H3          6.7050   -8.4020    3.9590 H         1    UNL1     0.2883
     39 H4          5.6340   -7.2320    2.2710 H         1    UNL1     0.3009
     40 H5          5.1380   -5.6140    2.4840 H         1    UNL1     0.3009
     41 H6          7.1830   -2.1730    8.6520 H         1    UNL1     0.0541
     42 H7          5.4910   -2.3270    9.2170 H         1    UNL1     0.0541
     43 H8          4.0510    2.3220   11.4020 H         1    UNL1     0.0647
     44 H9          8.6190    2.8000    9.6730 H         1    UNL1     0.0639
     45 H10         7.5740    4.6020   10.9370 H         1    UNL1     0.0626
     46 H11         9.1870    0.9670    8.6010 H         1    UNL1     0.0456
     47 H12         8.3820   -0.0670    7.4450 H         1    UNL1     0.0456
     48 H13         9.0120   -0.7400    8.9300 H         1    UNL1     0.0456
     49 H14         7.2270    3.6370   13.4100 H         1    UNL1     0.0473
     50 H15         7.0720    4.7430   14.7790 H         1    UNL1     0.0473
     51 H16         7.8130    5.6110   12.0190 H         1    UNL1     0.0340
     52 H17         8.9730    5.2350   13.3070 H         1    UNL1     0.0340
     53 H18         7.2390   -3.9070    7.6850 H         1    UNL1     0.0636
     54 H19         4.3780   -2.3050    5.0560 H         1    UNL1     0.0636
     55 H20         6.2350    5.8020   15.7210 H         1    UNL1     0.0652
     56 H21         7.3950   -5.8960    6.3030 H         1    UNL1     0.0627
     57 H22         4.5340   -4.2930    3.6740 H         1    UNL1     0.0627
     58 H23         4.7200    6.7500   17.3830 H         1    UNL1     0.0619
     59 H24         1.5700    6.2210   14.7070 H         1    UNL1     0.0830
     60 H25         2.3460    6.9590   16.8570 H         1    UNL1     0.0633
@<TRIPOS>UNITY_ATOM_ATTR
2 1
charge -1
10 1
charge 1
@<TRIPOS>BOND
     1     1    20    2
     2     2    31   ar
     3     3    31   ar
     4     4    11   ar
     5     4    12   ar
     6     4    19    1
     7     5    12   ar
     8     5    13   ar
     9     6    20   am
    10     6    21    1
    11     6    24    1
    12     7    14    1
    13     7    22    1
    14     8    24   ar
    15     8    33   ar
    16     9    35    1
    17    10    35    2
    18    11    13   ar
    19    11    17   ar
    20    12    14    1
    21    13    16   ar
    22    15    16   ar
    23    15    18   ar
    24    15    20    1
    25    17    18   ar
    26    21    23    1
    27    22    25   ar
    28    22    26   ar
    29    23    31    1
    30    24    27   ar
    31    25    28   ar
    32    26    29   ar
    33    27    32   ar
    34    28    30   ar
    35    29    30   ar
    36    30    35    1
    37    32    34   ar
    38    33    34   ar
    39     7    36    1
    40     9    37    1
    41     9    38    1
    42    10    39    1
    43    10    40    1
    44    14    41    1
    45    14    42    1
    46    16    43    1
    47    17    44    1
    48    18    45    1
    49    19    46    1
    50    19    47    1
    51    19    48    1
    52    21    49    1
    53    21    50    1
    54    23    51    1
    55    23    52    1
    56    25    53    1
    57    26    54    1
    58    27    55    1
    59    28    56    1
    60    29    57    1
    61    32    58    1
    62    33    59    1
    63    34    60    1
