#REMARK Cluster   5 of Poses:  2 Score: -8.20 kcal/mol
@<TRIPOS>MOLECULE
216210
 60 63 0 0 0
SMALL
GASTEIGER

@<TRIPOS>ATOM
      1 O1          5.8930    4.8940   11.6270 O.2       1    UNL1    -0.2696
      2 O2          4.1230    0.5280   16.7540 O.co2     1    UNL1    -0.5498
      3 O3          6.3080    0.9900   16.3410 O.co2     1    UNL1    -0.5498
      4 N4          7.2670   -1.1460   10.9070 N.ar      1    UNL1    -0.3294
      5 N5          5.4270   -0.2910    9.9990 N.ar      1    UNL1    -0.2307
      6 N6          5.1870    4.2120   13.7760 N.am      1    UNL1    -0.2518
      7 N7          5.7300   -2.4440    7.9080 N.pl3     1    UNL1    -0.3367
      8 N8          4.3840    6.4510   13.3910 N.ar      1    UNL1    -0.2399
      9 N9          7.0590   -7.5710    4.2140 N.pl3     1    UNL1    -0.2497
     10 N10         5.3660   -6.5110    3.0010 N.2       1    UNL1    -0.2884
     11 C11         7.0460    0.1170   11.4060 C.ar      1    UNL1     0.0686
     12 C12         6.2790   -1.3590   10.0670 C.ar      1    UNL1     0.1277
     13 C13         5.8980    0.6750   10.8510 C.ar      1    UNL1     0.0901
     14 C14         6.1260   -2.6120    9.3010 C.3       1    UNL1     0.0674
     15 C15         6.1800    2.6760   12.1070 C.ar      1    UNL1     0.0394
     16 C16         5.4310    1.9490   11.1750 C.ar      1    UNL1    -0.0221
     17 C17         7.7860    0.8610   12.3400 C.ar      1    UNL1    -0.0353
     18 C18         7.3370    2.1430   12.6800 C.ar      1    UNL1    -0.0475
     19 C19         8.3570   -2.0270   11.2520 C.3       1    UNL1     0.0136
     20 C20         5.7440    4.0120   12.4840 C.2       1    UNL1     0.2520
     21 C21         5.6120    3.3790   14.9110 C.3       1    UNL1     0.0265
     22 C22         5.8310   -3.4460    6.9670 C.ar      1    UNL1     0.0275
     23 C23         4.5730    2.3230   15.2670 C.3       1    UNL1     0.0031
     24 C24         4.1900    5.2480   13.9760 C.ar      1    UNL1     0.1277
     25 C25         6.4980   -4.6310    7.2790 C.ar      1    UNL1    -0.0400
     26 C26         5.2660   -3.2750    5.7030 C.ar      1    UNL1    -0.0400
     27 C27         3.0940    4.9350   14.7630 C.ar      1    UNL1    -0.0213
     28 C28         6.6010   -5.6440    6.3270 C.ar      1    UNL1    -0.0453
     29 C29         5.3690   -4.2880    4.7510 C.ar      1    UNL1    -0.0453
     30 C30         6.0360   -5.4730    5.0620 C.ar      1    UNL1     0.0609
     31 C31         5.1230    1.2300   16.1570 C.2       1    UNL1     0.0432
     32 C32         2.1330    5.9210   14.9620 C.ar      1    UNL1    -0.0571
     33 C33         3.4290    7.3840   13.6070 C.ar      1    UNL1     0.0297
     34 C34         2.2970    7.1710   14.3770 C.ar      1    UNL1    -0.0435
     35 C35         6.1440   -6.5300    4.0690 C.2       1    UNL1     0.2662
     36 H1          5.3730   -1.5710    7.6250 H         1    UNL1     0.1465
     37 H2          7.6080   -7.6340    5.0290 H         1    UNL1     0.2883
     38 H3          7.1580   -8.2430    3.5010 H         1    UNL1     0.2883
     39 H4          5.4370   -7.2250    2.3280 H         1    UNL1     0.3009
     40 H5          4.7150   -5.7820    2.8790 H         1    UNL1     0.3009
     41 H6          7.0640   -3.1270    9.3180 H         1    UNL1     0.0541
     42 H7          5.3330   -3.1540    9.7720 H         1    UNL1     0.0541
     43 H8          4.5760    2.3370   10.7470 H         1    UNL1     0.0647
     44 H9          8.6420    0.4720   12.7660 H         1    UNL1     0.0639
     45 H10         7.8680    2.7030   13.3650 H         1    UNL1     0.0626
     46 H11         8.9900   -1.5470   11.9690 H         1    UNL1     0.0456
     47 H12         8.9230   -2.2550   10.3730 H         1    UNL1     0.0456
     48 H13         7.9660   -2.9310   11.6690 H         1    UNL1     0.0456
     49 H14         5.7690    4.0090   15.7620 H         1    UNL1     0.0473
     50 H15         6.5120    2.8740   14.6310 H         1    UNL1     0.0473
     51 H16         4.2150    1.8780   14.3620 H         1    UNL1     0.0340
     52 H17         3.7900    2.8130   15.8070 H         1    UNL1     0.0340
     53 H18         6.9150   -4.7570    8.2140 H         1    UNL1     0.0636
     54 H19         4.7730   -2.3980    5.4730 H         1    UNL1     0.0636
     55 H20         2.9930    4.0000   15.1880 H         1    UNL1     0.0652
     56 H21         7.0940   -6.5210    6.5570 H         1    UNL1     0.0627
     57 H22         4.9520   -4.1620    3.8150 H         1    UNL1     0.0627
     58 H23         1.3030    5.7250   15.5430 H         1    UNL1     0.0619
     59 H24         3.5520    8.3120   13.1720 H         1    UNL1     0.0830
     60 H25         1.5970    7.9170   14.5110 H         1    UNL1     0.0633
@<TRIPOS>UNITY_ATOM_ATTR
2 1
charge -1
10 1
charge 1
@<TRIPOS>BOND
     1     1    20    2
     2     2    31   ar
     3     3    31   ar
     4     4    11   ar
     5     4    12   ar
     6     4    19    1
     7     5    12   ar
     8     5    13   ar
     9     6    20   am
    10     6    21    1
    11     6    24    1
    12     7    14    1
    13     7    22    1
    14     8    24   ar
    15     8    33   ar
    16     9    35    1
    17    10    35    2
    18    11    13   ar
    19    11    17   ar
    20    12    14    1
    21    13    16   ar
    22    15    16   ar
    23    15    18   ar
    24    15    20    1
    25    17    18   ar
    26    21    23    1
    27    22    25   ar
    28    22    26   ar
    29    23    31    1
    30    24    27   ar
    31    25    28   ar
    32    26    29   ar
    33    27    32   ar
    34    28    30   ar
    35    29    30   ar
    36    30    35    1
    37    32    34   ar
    38    33    34   ar
    39     7    36    1
    40     9    37    1
    41     9    38    1
    42    10    39    1
    43    10    40    1
    44    14    41    1
    45    14    42    1
    46    16    43    1
    47    17    44    1
    48    18    45    1
    49    19    46    1
    50    19    47    1
    51    19    48    1
    52    21    49    1
    53    21    50    1
    54    23    51    1
    55    23    52    1
    56    25    53    1
    57    26    54    1
    58    27    55    1
    59    28    56    1
    60    29    57    1
    61    32    58    1
    62    33    59    1
    63    34    60    1
