#REMARK Cluster  10 of Poses:  2 Score: -7.64 kcal/mol
@<TRIPOS>MOLECULE
216210
 60 63 0 0 0
SMALL
GASTEIGER

@<TRIPOS>ATOM
      1 O1          1.4190   -8.9790   10.8960 O.2       1    UNL1    -0.2696
      2 O2          2.5630   -6.9810   17.4800 O.co2     1    UNL1    -0.5498
      3 O3          2.5610   -5.1920   16.0820 O.co2     1    UNL1    -0.5498
      4 N4          7.2200   -6.6920   10.9840 N.ar      1    UNL1    -0.3294
      5 N5          5.5880   -5.6190    9.9220 N.ar      1    UNL1    -0.2307
      6 N6          1.3470   -8.1850   13.1200 N.am      1    UNL1    -0.2518
      7 N7          7.4720   -3.9490    8.5010 N.pl3     1    UNL1    -0.3367
      8 N8         -0.9260   -8.9850   13.0680 N.ar      1    UNL1    -0.2399
      9 N9          3.6830   -5.5540    3.5240 N.pl3     1    UNL1    -0.2497
     10 N10         5.7730   -6.3330    2.8290 N.2       1    UNL1    -0.2884
     11 C11         6.0060   -7.2480   11.3160 C.ar      1    UNL1     0.0686
     12 C12         6.9330   -5.7190   10.1490 C.ar      1    UNL1     0.1277
     13 C13         4.9660   -6.5920   10.6620 C.ar      1    UNL1     0.0901
     14 C14         7.9600   -4.8510    9.5370 C.3       1    UNL1     0.0674
     15 C15         3.3450   -8.0150   11.6670 C.ar      1    UNL1     0.0394
     16 C16         3.6240   -6.9440   10.8100 C.ar      1    UNL1    -0.0221
     17 C17         5.7070   -8.3210   12.1730 C.ar      1    UNL1    -0.0353
     18 C18         4.3670   -8.6920   12.3370 C.ar      1    UNL1    -0.0475
     19 C19         8.5150   -7.1090   11.4650 C.3       1    UNL1     0.0136
     20 C20         1.9640   -8.4290   11.8630 C.2       1    UNL1     0.2520
     21 C21         1.7470   -7.0300   13.9380 C.3       1    UNL1     0.0265
     22 C22         6.8770   -4.3860    7.3380 C.ar      1    UNL1     0.0275
     23 C23         2.5670   -7.4450   15.1520 C.3       1    UNL1     0.0031
     24 C24         0.3130   -9.0840   13.5990 C.ar      1    UNL1     0.1277
     25 C25         6.9660   -5.7280    6.9700 C.ar      1    UNL1    -0.0400
     26 C26         6.1870   -3.4850    6.5270 C.ar      1    UNL1    -0.0400
     27 C27         0.6650   -9.9950   14.5820 C.ar      1    UNL1    -0.0213
     28 C28         6.3640   -6.1700    5.7920 C.ar      1    UNL1    -0.0453
     29 C29         5.5850   -3.9270    5.3480 C.ar      1    UNL1    -0.0453
     30 C30         5.6740   -5.2700    4.9810 C.ar      1    UNL1     0.0609
     31 C31         2.5660   -6.4030   16.2500 C.2       1    UNL1     0.0432
     32 C32        -0.3180  -10.8600   15.0490 C.ar      1    UNL1    -0.0571
     33 C33        -1.8550   -9.8420   13.5470 C.ar      1    UNL1     0.0297
     34 C34        -1.6050  -10.7890   14.5270 C.ar      1    UNL1    -0.0435
     35 C35         5.0460   -5.7300    3.7530 C.2       1    UNL1     0.2662
     36 H1          7.5740   -2.9790    8.6390 H         1    UNL1     0.1465
     37 H2          3.0250   -5.9940    4.1090 H         1    UNL1     0.2883
     38 H3          3.3780   -4.9880    2.7780 H         1    UNL1     0.2883
     39 H4          5.3500   -6.6460    1.9960 H         1    UNL1     0.3009
     40 H5          6.7370   -6.4700    2.9730 H         1    UNL1     0.3009
     41 H6          8.3970   -4.2590   10.3130 H         1    UNL1     0.0541
     42 H7          8.6550   -5.5070    9.0570 H         1    UNL1     0.0541
     43 H8          2.8740   -6.4400   10.3120 H         1    UNL1     0.0647
     44 H9          6.4590   -8.8240   12.6700 H         1    UNL1     0.0639
     45 H10         4.1300   -9.4780   12.9630 H         1    UNL1     0.0626
     46 H11         8.3970   -7.9340   12.1360 H         1    UNL1     0.0456
     47 H12         8.9830   -6.2960   11.9790 H         1    UNL1     0.0456
     48 H13         9.1240   -7.4070   10.6380 H         1    UNL1     0.0456
     49 H14         0.8660   -6.5230   14.2740 H         1    UNL1     0.0473
     50 H15         2.3540   -6.3910   13.3320 H         1    UNL1     0.0473
     51 H16         3.5770   -7.6110   14.8410 H         1    UNL1     0.0340
     52 H17         2.1220   -8.3320   15.5520 H         1    UNL1     0.0340
     53 H18         7.4760   -6.3950    7.5700 H         1    UNL1     0.0636
     54 H19         6.1210   -2.4920    6.7980 H         1    UNL1     0.0636
     55 H20         1.6270  -10.0310   14.9550 H         1    UNL1     0.0652
     56 H21         6.4290   -7.1640    5.5210 H         1    UNL1     0.0627
     57 H22         5.0740   -3.2600    4.7480 H         1    UNL1     0.0627
     58 H23        -0.0940  -11.5530   15.7810 H         1    UNL1     0.0619
     59 H24        -2.8100   -9.7880   13.1590 H         1    UNL1     0.0830
     60 H25        -2.3490  -11.4210   14.8590 H         1    UNL1     0.0633
@<TRIPOS>UNITY_ATOM_ATTR
2 1
charge -1
10 1
charge 1
@<TRIPOS>BOND
     1     1    20    2
     2     2    31   ar
     3     3    31   ar
     4     4    11   ar
     5     4    12   ar
     6     4    19    1
     7     5    12   ar
     8     5    13   ar
     9     6    20   am
    10     6    21    1
    11     6    24    1
    12     7    14    1
    13     7    22    1
    14     8    24   ar
    15     8    33   ar
    16     9    35    1
    17    10    35    2
    18    11    13   ar
    19    11    17   ar
    20    12    14    1
    21    13    16   ar
    22    15    16   ar
    23    15    18   ar
    24    15    20    1
    25    17    18   ar
    26    21    23    1
    27    22    25   ar
    28    22    26   ar
    29    23    31    1
    30    24    27   ar
    31    25    28   ar
    32    26    29   ar
    33    27    32   ar
    34    28    30   ar
    35    29    30   ar
    36    30    35    1
    37    32    34   ar
    38    33    34   ar
    39     7    36    1
    40     9    37    1
    41     9    38    1
    42    10    39    1
    43    10    40    1
    44    14    41    1
    45    14    42    1
    46    16    43    1
    47    17    44    1
    48    18    45    1
    49    19    46    1
    50    19    47    1
    51    19    48    1
    52    21    49    1
    53    21    50    1
    54    23    51    1
    55    23    52    1
    56    25    53    1
    57    26    54    1
    58    27    55    1
    59    28    56    1
    60    29    57    1
    61    32    58    1
    62    33    59    1
    63    34    60    1
